data_structure

_audit_creation_method RASPA-1.0
_audit_creation_date 2023-5-23
_audit_author_name 'Poobodin Mano'

_cell_length_a    59.6646
_cell_length_b    59.6673
_cell_length_c    29.8941
_cell_angle_alpha 90
_cell_angle_beta  90
_cell_angle_gamma 90
_cell_volume      106424

_symmetry_cell_setting          triclinic
_symmetry_space_group_name_Hall 'P 1'
_symmetry_space_group_name_H-M  'P 1'
_symmetry_Int_Tables_number     1

_symmetry_equiv_pos_as_xyz 'x,y,z'

loop_
_atom_site_label
_atom_site_type_symbol
_atom_site_fract_x
_atom_site_fract_y
_atom_site_fract_z
_atom_site_charge
C1       C      0.375110000000     0.874570000000     0.088150000000     0.47946    
C2       C      0.374300000000     0.874180000000     0.918350000000     0.479085   
C3       C      0.375180000000     0.916860000000     0.002760000000     0.47918    
C4       C      0.374310000000     0.831770000000     0.003750000000     0.479234   
C5       C      0.373990000000     0.874950000000     0.588120000000     0.479292   
C6       C      0.374480000000     0.874820000000     0.418310000000     0.479392   
C7       C      0.373860000000     0.917460000000     0.502860000000     0.479383   
C8       C      0.374520000000     0.832380000000     0.503360000000     0.479243   
C9       C      0.374500000000     0.124840000000     0.912580000000     0.47942    
C10      C      0.374340000000     0.124830000000     0.082390000000     0.478805   
C11      C      0.375190000000     0.082290000000     0.997530000000     0.479254   
C12      C      0.373620000000     0.167360000000     0.997340000000     0.479044   
C13      C      0.374390000000     0.125020000000     0.412540000000     0.479267   
C14      C      0.374490000000     0.125800000000     0.582340000000     0.479511   
C15      C      0.373820000000     0.082900000000     0.498490000000     0.479281   
C16      C      0.375080000000     0.167970000000     0.496570000000     0.479092   
C17      C      0.873690000000     0.626060000000     0.078720000000     0.479197   
C18      C      0.873430000000     0.624810000000     0.908910000000     0.478914   
C19      C      0.916070000000     0.624980000000     0.993570000000     0.478921   
C20      C      0.830970000000     0.626090000000     0.994300000000     0.478946   
C21      C      0.874590000000     0.623980000000     0.578680000000     0.478776   
C22      C      0.875760000000     0.625090000000     0.408890000000     0.479183   
C23      C      0.917780000000     0.624850000000     0.494820000000     0.479154   
C24      C      0.832700000000     0.624000000000     0.492430000000     0.478765   
C25      C      0.123900000000     0.624590000000     0.910060000000     0.47936    
C26      C      0.124330000000     0.624220000000     0.079860000000     0.479437   
C27      C      0.081510000000     0.624700000000     0.995240000000     0.479032   
C28      C      0.166600000000     0.623920000000     0.994420000000     0.479257   
C29      C      0.125780000000     0.625050000000     0.410090000000     0.479172   
C30      C      0.125640000000     0.625410000000     0.579890000000     0.479084   
C31      C      0.083210000000     0.624920000000     0.494870000000     0.479722   
C32      C      0.168300000000     0.625710000000     0.495220000000     0.478546   
C33      C      0.625360000000     0.125630000000     0.087360000000     0.479096   
C34      C      0.625150000000     0.125310000000     0.917550000000     0.479592   
C35      C      0.625680000000     0.082980000000     0.002650000000     0.479325   
C36      C      0.624960000000     0.168060000000     0.002100000000     0.47888    
C37      C      0.624830000000     0.124300000000     0.587370000000     0.479263   
C38      C      0.624530000000     0.125130000000     0.417560000000     0.479407   
C39      C      0.624200000000     0.082170000000     0.501520000000     0.479234   
C40      C      0.625040000000     0.167250000000     0.503480000000     0.478865   
C41      C      0.624810000000     0.874840000000     0.913420000000     0.47959    
C42      C      0.624490000000     0.875150000000     0.083230000000     0.479468   
C43      C      0.625510000000     0.917550000000     0.998040000000     0.479642   
C44      C      0.623720000000     0.832490000000     0.998700000000     0.478889   
C45      C      0.624930000000     0.874600000000     0.413400000000     0.479496   
C46      C      0.624800000000     0.873820000000     0.583210000000     0.479243   
C47      C      0.624110000000     0.916720000000     0.499270000000     0.479644   
C48      C      0.625690000000     0.831640000000     0.497370000000     0.478718   
C49      C      0.374690000000     0.416850000000     0.995210000000     0.479123   
C50      C      0.373570000000     0.331790000000     0.995740000000     0.478695   
C51      C      0.331650000000     0.374840000000     0.995520000000     0.478844   
C52      C      0.416710000000     0.373850000000     0.995620000000     0.479075   
C53      C      0.375010000000     0.417490000000     0.495840000000     0.478658   
C54      C      0.375170000000     0.332410000000     0.495260000000     0.47886    
C55      C      0.332490000000     0.374910000000     0.495990000000     0.478884   
C56      C      0.417560000000     0.374910000000     0.495070000000     0.479022   
C57      C      0.373870000000     0.582250000000     0.997150000000     0.479145   
C58      C      0.373210000000     0.667330000000     0.000650000000     0.478987   
C59      C      0.330990000000     0.624350000000     0.997030000000     0.478979   
C60      C      0.416060000000     0.625130000000     0.000600000000     0.479532   
C61      C      0.375190000000     0.582920000000     0.498490000000     0.478911   
C62      C      0.375370000000     0.667990000000     0.500550000000     0.479015   
C63      C      0.332750000000     0.625620000000     0.498700000000     0.478589   
C64      C      0.417830000000     0.625430000000     0.500230000000     0.47887    
C65      C      0.582120000000     0.375080000000     0.998930000000     0.478728   
C66      C      0.667200000000     0.374990000000     0.001170000000     0.478656   
C67      C      0.624560000000     0.332520000000     0.000310000000     0.478687   
C68      C      0.624760000000     0.417590000000     0.999920000000     0.478991   
C69      C      0.582950000000     0.374280000000     0.497990000000     0.479663   
C70      C      0.668010000000     0.374200000000     0.502480000000     0.4793     
C71      C      0.625500000000     0.331670000000     0.502010000000     0.479292   
C72      C      0.625420000000     0.416730000000     0.498460000000     0.479696   
C73      C      0.624670000000     0.583020000000     0.000360000000     0.478986   
C74      C      0.623200000000     0.668080000000     0.000220000000     0.478891   
C75      C      0.666520000000     0.626310000000     0.999360000000     0.478614   
C76      C      0.581460000000     0.624850000000     0.001250000000     0.478906   
C77      C      0.625460000000     0.582130000000     0.495830000000     0.479321   
C78      C      0.626270000000     0.667220000000     0.495520000000     0.478872   
C79      C      0.668330000000     0.624190000000     0.493630000000     0.479034   
C80      C      0.583270000000     0.624980000000     0.497750000000     0.479152   
C81      C      0.125030000000     0.375380000000     0.083410000000     0.478554   
C82      C      0.124440000000     0.374510000000     0.913630000000     0.47901    
C83      C      0.082150000000     0.374830000000     0.999310000000     0.478846   
C84      C      0.167210000000     0.375060000000     0.997770000000     0.478911   
C85      C      0.125450000000     0.374390000000     0.583430000000     0.479187   
C86      C      0.125300000000     0.375460000000     0.413610000000     0.478673   
C87      C      0.082900000000     0.374960000000     0.498830000000     0.479577   
C88      C      0.168000000000     0.374890000000     0.498250000000     0.478842   
C89      C      0.874300000000     0.374860000000     0.919800000000     0.479088   
C90      C      0.874150000000     0.374600000000     0.089630000000     0.479353   
C91      C      0.916740000000     0.374680000000     0.004690000000     0.478985   
C92      C      0.831640000000     0.374790000000     0.004550000000     0.478974   
C93      C      0.874560000000     0.374490000000     0.419850000000     0.478813   
C94      C      0.875290000000     0.374740000000     0.589620000000     0.478877   
C95      C      0.917480000000     0.374770000000     0.503860000000     0.478619   
C96      C      0.832420000000     0.374440000000     0.505620000000     0.4787     
C97      C      0.879310000000     0.355290000000     0.804070000000    -0.0894036  
C98      C      0.874900000000     0.374940000000     0.779750000000     0.0343691  
C99      C      0.870300000000     0.394580000000     0.803960000000    -0.0893162  
C100     C      0.870520000000     0.394340000000     0.850690000000     0.0740776  
C101     C      0.878680000000     0.355500000000     0.850760000000     0.0743279  
C102     C      0.875050000000     0.374910000000     0.729670000000     0.0343414  
C103     C      0.869700000000     0.355460000000     0.705430000000    -0.0893868  
C104     C      0.870260000000     0.355610000000     0.658740000000     0.0740733  
C105     C      0.880220000000     0.394030000000     0.658650000000     0.0740916  
C106     C      0.880530000000     0.394290000000     0.705380000000    -0.0893568  
C107     C      0.878640000000     0.394120000000     0.205510000000    -0.0894113  
C108     C      0.874160000000     0.374440000000     0.229700000000     0.0343885  
C109     C      0.869690000000     0.354810000000     0.205360000000    -0.0894585  
C110     C      0.870100000000     0.355090000000     0.158640000000     0.0741737  
C111     C      0.878210000000     0.393940000000     0.158800000000     0.0742287  
C112     C      0.874180000000     0.374410000000     0.279780000000     0.0342642  
C113     C      0.868700000000     0.393800000000     0.304080000000    -0.0893549  
C114     C      0.869230000000     0.393610000000     0.350770000000     0.074024   
C115     C      0.879370000000     0.355240000000     0.350740000000     0.0739831  
C116     C      0.879690000000     0.355020000000     0.304020000000    -0.0892729  
C117     C      0.975350000000     0.394280000000     0.490850000000    -0.0892999  
C118     C      0.987640000000     0.374930000000     0.501550000000     0.034433   
C119     C      0.975620000000     0.355550000000     0.513170000000    -0.089355   
C120     C      0.952220000000     0.355710000000     0.513120000000     0.0742398  
C121     C      0.951960000000     0.394030000000     0.492540000000     0.0741539  
C122     C      0.012730000000     0.374960000000     0.500640000000     0.0344556  
C123     C      0.024950000000     0.394670000000     0.508780000000    -0.0893544  
C124     C      0.048340000000     0.394450000000     0.507240000000     0.074355   
C125     C      0.048240000000     0.355510000000     0.491830000000     0.0743091  
C126     C      0.024840000000     0.355280000000     0.491680000000    -0.0893138  
C127     C      0.119530000000     0.354630000000     0.797990000000    -0.089173   
C128     C      0.124850000000     0.374020000000     0.773570000000     0.0342915  
C129     C      0.130090000000     0.393530000000     0.797680000000    -0.0894739  
C130     C      0.129510000000     0.393470000000     0.844350000000     0.0741727  
C131     C      0.119780000000     0.354990000000     0.844730000000     0.0738568  
C132     C      0.124890000000     0.373980000000     0.723490000000     0.0343487  
C133     C      0.129690000000     0.354420000000     0.699150000000    -0.0891948  
C134     C      0.129460000000     0.354740000000     0.652390000000     0.0739122  
C135     C      0.120760000000     0.393470000000     0.652650000000     0.074234   
C136     C      0.120170000000     0.393590000000     0.699310000000    -0.0895137  
C137     C      0.120040000000     0.395240000000     0.199040000000    -0.0892866  
C138     C      0.125350000000     0.375850000000     0.223470000000     0.034321   
C139     C      0.130730000000     0.356370000000     0.199390000000    -0.0894414  
C140     C      0.130240000000     0.356440000000     0.152700000000     0.0740332  
C141     C      0.120380000000     0.394890000000     0.152310000000     0.0739154  
C142     C      0.125210000000     0.375870000000     0.273550000000     0.0343113  
C143     C      0.129890000000     0.395440000000     0.297960000000    -0.0891785  
C144     C      0.129470000000     0.395120000000     0.344710000000     0.0738214  
C145     C      0.120800000000     0.356380000000     0.344320000000     0.074159   
C146     C      0.120400000000     0.356260000000     0.297640000000    -0.0894396  
C147     C      0.024010000000     0.394070000000     0.990100000000    -0.0893407  
C148     C      0.011990000000     0.374700000000     0.001800000000     0.0344186  
C149     C      0.024280000000     0.355360000000     0.012510000000    -0.0892169  
C150     C      0.047670000000     0.355590000000     0.010750000000     0.0741298  
C151     C      0.047410000000     0.393900000000     0.990060000000     0.0741664  
C152     C      0.986900000000     0.374670000000     0.002790000000     0.0345625  
C153     C      0.974810000000     0.394340000000     0.011920000000    -0.08935    
C154     C      0.951400000000     0.394100000000     0.011840000000     0.0743501  
C155     C      0.951290000000     0.355200000000     0.996170000000     0.0744389  
C156     C      0.974680000000     0.354970000000     0.994580000000    -0.0895479  
C157     C      0.726440000000     0.370420000000     0.465520000000    -0.091119   
C158     C      0.737860000000     0.374150000000     0.505570000000     0.034688   
C159     C      0.725600000000     0.377900000000     0.544660000000    -0.0909268  
C160     C      0.702200000000     0.377570000000     0.543200000000     0.0740157  
C161     C      0.703040000000     0.370750000000     0.465010000000     0.0741713  
C162     C      0.762550000000     0.374160000000     0.506400000000     0.0346544  
C163     C      0.774460000000     0.354470000000     0.497940000000    -0.0910494  
C164     C      0.797860000000     0.354790000000     0.498470000000     0.07405    
C165     C      0.797740000000     0.393780000000     0.514100000000     0.0740562  
C166     C      0.774330000000     0.393930000000     0.514900000000    -0.0909803  
C167     C      0.630340000000     0.474510000000     0.457910000000    -0.0892635  
C168     C      0.625240000000     0.486880000000     0.496580000000     0.0344653  
C169     C      0.620040000000     0.474950000000     0.535700000000    -0.0896599  
C170     C      0.620510000000     0.451570000000     0.535820000000     0.0745241  
C171     C      0.629930000000     0.451090000000     0.458880000000     0.0740966  
C172     C      0.625360000000     0.511970000000     0.496250000000     0.0343963  
C173     C      0.620690000000     0.524060000000     0.457030000000    -0.0893553  
C174     C      0.621140000000     0.547470000000     0.457320000000     0.0742931  
C175     C      0.629680000000     0.547590000000     0.534690000000     0.0743035  
C176     C      0.630100000000     0.524200000000     0.535270000000    -0.0894493  
C177     C      0.725490000000     0.378740000000     0.963080000000    -0.0909557  
C178     C      0.737080000000     0.374900000000     0.002920000000     0.0345736  
C179     C      0.724990000000     0.371090000000     0.042170000000    -0.0909777  
C180     C      0.701580000000     0.371410000000     0.041100000000     0.0738764  
C181     C      0.702080000000     0.378470000000     0.962980000000     0.0738412  
C182     C      0.761750000000     0.374880000000     0.003510000000     0.0346412  
C183     C      0.773550000000     0.354880000000     0.009210000000    -0.0910128  
C184     C      0.796960000000     0.355110000000     0.009050000000     0.0741364  
C185     C      0.797050000000     0.394570000000     0.999260000000     0.0739878  
C186     C      0.773640000000     0.394860000000     0.998280000000    -0.0909842  
C187     C      0.620000000000     0.475650000000     0.960990000000    -0.089406   
C188     C      0.625010000000     0.487760000000     0.000010000000     0.0344501  
C189     C      0.629980000000     0.475570000000     0.038950000000    -0.0895583  
C190     C      0.629490000000     0.452180000000     0.038450000000     0.0742607  
C191     C      0.620350000000     0.452240000000     0.961370000000     0.0740057  
C192     C      0.625020000000     0.512850000000     0.000150000000     0.0343237  
C193     C      0.630060000000     0.525060000000     0.961260000000    -0.0894605  
C194     C      0.629580000000     0.548460000000     0.961800000000     0.0740859  
C195     C      0.620320000000     0.548360000000     0.038830000000     0.0740869  
C196     C      0.619970000000     0.524960000000     0.039160000000    -0.0893028  
C197     C      0.524950000000     0.620410000000     0.460640000000    -0.0895963  
C198     C      0.513100000000     0.625200000000     0.500060000000     0.0343767  
C199     C      0.525550000000     0.629730000000     0.538910000000    -0.0891959  
C200     C      0.548970000000     0.629230000000     0.537770000000     0.0738804  
C201     C      0.548330000000     0.620730000000     0.460400000000     0.0743389  
C202     C      0.488010000000     0.625480000000     0.500450000000     0.0343521  
C203     C      0.475850000000     0.631010000000     0.461790000000    -0.0895468  
C204     C      0.452460000000     0.630600000000     0.462200000000     0.0742588  
C205     C      0.452440000000     0.620580000000     0.538850000000     0.0738334  
C206     C      0.475870000000     0.620150000000     0.539270000000    -0.0891981  
C207     C      0.523360000000     0.619290000000     0.963250000000    -0.0894712  
C208     C      0.511300000000     0.624630000000     0.002150000000     0.0344022  
C209     C      0.523530000000     0.629760000000     0.040950000000    -0.0893611  
C210     C      0.546950000000     0.629340000000     0.040280000000     0.0740146  
C211     C      0.546750000000     0.619700000000     0.963430000000     0.0741459  
C212     C      0.486220000000     0.624960000000     0.002080000000     0.0344808  
C213     C      0.474260000000     0.630030000000     0.962940000000    -0.0897378  
C214     C      0.450880000000     0.629760000000     0.963000000000     0.0743869  
C215     C      0.450470000000     0.620770000000     0.040160000000     0.0739987  
C216     C      0.473890000000     0.620230000000     0.040980000000    -0.0892273  
C217     C      0.226070000000     0.394630000000     0.505600000000    -0.090977   
C218     C      0.237890000000     0.374870000000     0.497250000000     0.0346561  
C219     C      0.226000000000     0.355110000000     0.489290000000    -0.091001   
C220     C      0.202600000000     0.355350000000     0.490320000000     0.0740274  
C221     C      0.202660000000     0.394400000000     0.505290000000     0.074084   
C222     C      0.262590000000     0.374870000000     0.496900000000     0.0345168  
C223     C      0.274580000000     0.379070000000     0.536140000000    -0.0909439  
C224     C      0.297980000000     0.378750000000     0.535370000000     0.0739668  
C225     C      0.297730000000     0.371030000000     0.457500000000     0.0738229  
C226     C      0.274320000000     0.370690000000     0.457350000000    -0.0908353  
C227     C      0.475640000000     0.379850000000     0.456200000000    -0.0891998  
C228     C      0.487720000000     0.374530000000     0.495100000000     0.0343425  
C229     C      0.475500000000     0.369170000000     0.533790000000    -0.0895667  
C230     C      0.452130000000     0.369710000000     0.533310000000     0.0743225  
C231     C      0.452210000000     0.379550000000     0.456560000000     0.0739255  
C232     C      0.512800000000     0.374640000000     0.495520000000     0.0344333  
C233     C      0.525230000000     0.369920000000     0.456730000000    -0.0892483  
C234     C      0.548650000000     0.370240000000     0.457910000000     0.0740284  
C235     C      0.548040000000     0.378930000000     0.535200000000     0.074492   
C236     C      0.524670000000     0.379440000000     0.534910000000    -0.0896838  
C237     C      0.380170000000     0.525070000000     0.458380000000    -0.0894066  
C238     C      0.375030000000     0.512750000000     0.497060000000     0.0344153  
C239     C      0.369880000000     0.524710000000     0.536180000000    -0.0895022  
C240     C      0.370320000000     0.548110000000     0.536200000000     0.0740427  
C241     C      0.379810000000     0.548480000000     0.459280000000     0.0740006  
C242     C      0.375060000000     0.487670000000     0.496670000000     0.0342536  
C243     C      0.369960000000     0.475650000000     0.457580000000    -0.0892965  
C244     C      0.370350000000     0.452230000000     0.457730000000     0.0739178  
C245     C      0.379760000000     0.451990000000     0.534690000000     0.0740576  
C246     C      0.380170000000     0.475390000000     0.535420000000    -0.089325   
C247     C      0.225230000000     0.394940000000     0.004860000000    -0.0909548  
C248     C      0.237080000000     0.375230000000     0.996210000000     0.0346388  
C249     C      0.225230000000     0.355470000000     0.988070000000    -0.0909212  
C250     C      0.201830000000     0.355640000000     0.989260000000     0.073976   
C251     C      0.201820000000     0.394650000000     0.004700000000     0.0741579  
C252     C      0.261770000000     0.375250000000     0.995930000000     0.0345732  
C253     C      0.273710000000     0.379590000000     0.035150000000    -0.0909098  
C254     C      0.297110000000     0.379150000000     0.034530000000     0.0740676  
C255     C      0.296940000000     0.371100000000     0.956790000000     0.0739749  
C256     C      0.273540000000     0.370860000000     0.956510000000    -0.0909114  
C257     C      0.474610000000     0.368940000000     0.035270000000    -0.0894651  
C258     C      0.486880000000     0.374150000000     0.996560000000     0.0343071  
C259     C      0.474850000000     0.379060000000     0.957380000000    -0.0893157  
C260     C      0.451440000000     0.378470000000     0.957440000000     0.0739865  
C261     C      0.451220000000     0.369160000000     0.034450000000     0.0741398  
C262     C      0.511960000000     0.374480000000     0.997120000000     0.0342854  
C263     C      0.523810000000     0.379760000000     0.036310000000    -0.0892693  
C264     C      0.547220000000     0.379600000000     0.036470000000     0.0740389  
C265     C      0.547800000000     0.370150000000     0.959530000000     0.0739944  
C266     C      0.524400000000     0.369510000000     0.958510000000    -0.0893288  
C267     C      0.380150000000     0.474850000000     0.033920000000    -0.0894381  
C268     C      0.374830000000     0.487010000000     0.995120000000     0.034391   
C269     C      0.369700000000     0.474880000000     0.956200000000    -0.0894544  
C270     C      0.370140000000     0.451470000000     0.956620000000     0.074034   
C271     C      0.379750000000     0.451460000000     0.033480000000     0.0742538  
C272     C      0.374510000000     0.512090000000     0.995420000000     0.0342955  
C273     C      0.369430000000     0.523990000000     0.034640000000    -0.0895399  
C274     C      0.369600000000     0.547370000000     0.034700000000     0.0744057  
C275     C      0.378560000000     0.547910000000     0.957530000000     0.0740125  
C276     C      0.379220000000     0.524500000000     0.956590000000    -0.0891792  
C277     C      0.646560000000     0.773870000000     0.501890000000    -0.0909118  
C278     C      0.626760000000     0.761780000000     0.495660000000     0.0346115  
C279     C      0.606650000000     0.773370000000     0.489910000000    -0.091069   
C280     C      0.606570000000     0.796760000000     0.491020000000     0.0742079  
C281     C      0.645970000000     0.797280000000     0.501820000000     0.0738905  
C282     C      0.627000000000     0.737090000000     0.495450000000     0.0345981  
C283     C      0.630830000000     0.725220000000     0.534950000000    -0.0910129  
C284     C      0.630320000000     0.701820000000     0.534470000000     0.0739939  
C285     C      0.623140000000     0.701870000000     0.456390000000     0.0739654  
C286     C      0.623030000000     0.725280000000     0.455920000000    -0.090973   
C287     C      0.642640000000     0.774170000000     0.005870000000    -0.0910317  
C288     C      0.622540000000     0.762630000000     0.999690000000     0.0346484  
C289     C      0.602790000000     0.774760000000     0.993180000000    -0.0908513  
C290     C      0.603410000000     0.798170000000     0.993480000000     0.073938   
C291     C      0.642770000000     0.797560000000     0.004930000000     0.0741328  
C292     C      0.622260000000     0.737950000000     0.999990000000     0.0345408  
C293     C      0.626640000000     0.726190000000     0.039410000000    -0.0909537  
C294     C      0.626560000000     0.702780000000     0.039050000000     0.07394    
C295     C      0.618600000000     0.702620000000     0.961270000000     0.0739142  
C296     C      0.618040000000     0.726020000000     0.960700000000    -0.0909251  
C297     C      0.605260000000     0.869040000000     0.699060000000    -0.0892708  
C298     C      0.624830000000     0.873970000000     0.723280000000     0.0343223  
C299     C      0.644380000000     0.878770000000     0.698940000000    -0.0894161  
C300     C      0.644140000000     0.878250000000     0.652250000000     0.0742209  
C301     C      0.605450000000     0.869390000000     0.652330000000     0.0741503  
C302     C      0.624850000000     0.874180000000     0.773370000000     0.034395   
C303     C      0.605320000000     0.879250000000     0.797530000000    -0.0894648  
C304     C      0.605540000000     0.879070000000     0.844240000000     0.0742424  
C305     C      0.644200000000     0.870080000000     0.844450000000     0.0741722  
C306     C      0.644410000000     0.869390000000     0.797740000000    -0.0893351  
C307     C      0.605050000000     0.880180000000     0.199120000000    -0.0892263  
C308     C      0.624620000000     0.875200000000     0.223280000000     0.0344142  
C309     C      0.644110000000     0.870190000000     0.198930000000    -0.0896552  
C310     C      0.643820000000     0.870600000000     0.152250000000     0.074373   
C311     C      0.605190000000     0.879730000000     0.152380000000     0.0740465  
C312     C      0.624720000000     0.875130000000     0.273360000000     0.0343991  
C313     C      0.644310000000     0.880000000000     0.297560000000    -0.0893231  
C314     C      0.644190000000     0.879390000000     0.344280000000     0.0741504  
C315     C      0.605540000000     0.870340000000     0.344370000000     0.0742638  
C316     C      0.605230000000     0.870090000000     0.297680000000    -0.0895539  
C317     C      0.645330000000     0.225160000000     0.497280000000    -0.090947   
C318     C      0.625580000000     0.237120000000     0.504900000000     0.034594   
C319     C      0.605680000000     0.225390000000     0.512290000000    -0.0909181  
C320     C      0.605750000000     0.201990000000     0.511290000000     0.0740541  
C321     C      0.644920000000     0.201750000000     0.497540000000     0.0739745  
C322     C      0.625670000000     0.261800000000     0.504350000000     0.0346417  
C323     C      0.629360000000     0.273340000000     0.464410000000    -0.0911637  
C324     C      0.629010000000     0.296730000000     0.464160000000     0.0741964  
C325     C      0.622240000000     0.297360000000     0.542370000000     0.0739889  
C326     C      0.621960000000     0.273950000000     0.543590000000    -0.09089    
C327     C      0.604050000000     0.024270000000     0.509280000000    -0.08922    
C328     C      0.623630000000     0.012000000000     0.500300000000     0.0344588  
C329     C      0.643350000000     0.024080000000     0.491370000000    -0.0894035  
C330     C      0.643300000000     0.047460000000     0.492650000000     0.0744849  
C331     C      0.604440000000     0.047680000000     0.508730000000     0.0743277  
C332     C      0.623580000000     0.986890000000     0.500400000000     0.0344732  
C333     C      0.604090000000     0.974650000000     0.490330000000    -0.0891312  
C334     C      0.604420000000     0.951220000000     0.491010000000     0.074148   
C335     C      0.643020000000     0.951410000000     0.509400000000     0.0746715  
C336     C      0.643110000000     0.974780000000     0.510580000000    -0.0896012  
C337     C      0.619900000000     0.274570000000     0.039970000000    -0.0910346  
C338     C      0.624430000000     0.262640000000     0.000830000000     0.0347187  
C339     C      0.628970000000     0.274410000000     0.961480000000    -0.0910044  
C340     C      0.628650000000     0.297810000000     0.961740000000     0.0739177  
C341     C      0.620270000000     0.297970000000     0.039340000000     0.0740184  
C342     C      0.624540000000     0.237940000000     0.001090000000     0.0345826  
C343     C      0.604810000000     0.226000000000     0.009120000000    -0.0908282  
C344     C      0.605180000000     0.202590000000     0.008790000000     0.0739276  
C345     C      0.644300000000     0.202770000000     0.994430000000     0.0739979  
C346     C      0.644400000000     0.226170000000     0.993420000000    -0.090942   
C347     C      0.605480000000     0.129700000000     0.801760000000    -0.0893572  
C348     C      0.625020000000     0.124690000000     0.777510000000     0.0344069  
C349     C      0.644580000000     0.119880000000     0.801810000000    -0.0895069  
C350     C      0.644400000000     0.120540000000     0.848490000000     0.0743507  
C351     C      0.605730000000     0.129470000000     0.848480000000     0.0741764  
C352     C      0.625010000000     0.124480000000     0.727420000000     0.0343549  
C353     C      0.605440000000     0.119510000000     0.703270000000    -0.0894266  
C354     C      0.605620000000     0.119830000000     0.656560000000     0.0742825  
C355     C      0.644310000000     0.128700000000     0.656320000000     0.0740906  
C356     C      0.644560000000     0.129260000000     0.703020000000    -0.0893233  
C357     C      0.605570000000     0.120730000000     0.202960000000    -0.0894938  
C358     C      0.625010000000     0.125740000000     0.227430000000     0.0343582  
C359     C      0.644630000000     0.130700000000     0.203370000000    -0.0893543  
C360     C      0.644560000000     0.130230000000     0.156640000000     0.0740775  
C361     C      0.605940000000     0.121110000000     0.156270000000     0.0742671  
C362     C      0.624840000000     0.125650000000     0.277500000000     0.0343304  
C363     C      0.605230000000     0.130560000000     0.301640000000    -0.0892637  
C364     C      0.605310000000     0.129950000000     0.348370000000     0.073967   
C365     C      0.643930000000     0.120790000000     0.348580000000     0.0743149  
C366     C      0.644280000000     0.120550000000     0.301900000000    -0.0895371  
C367     C      0.645630000000     0.975340000000     0.009280000000    -0.0890074  
C368     C      0.626170000000     0.987710000000     0.999680000000     0.034383   
C369     C      0.606640000000     0.975760000000     0.988830000000    -0.0895069  
C370     C      0.606690000000     0.952380000000     0.988980000000     0.0745023  
C371     C      0.645270000000     0.951920000000     0.007580000000     0.0741186  
C372     C      0.626160000000     0.012810000000     0.000980000000     0.0346089  
C373     C      0.645770000000     0.025150000000     0.992650000000    -0.0894078  
C374     C      0.645410000000     0.048540000000     0.994270000000     0.0744116  
C375     C      0.606540000000     0.048210000000     0.010200000000     0.0745223  
C376     C      0.606450000000     0.024810000000     0.010400000000    -0.0894122  
C377     C      0.226490000000     0.606260000000     0.489230000000    -0.0910706  
C378     C      0.238180000000     0.626190000000     0.496560000000     0.0346479  
C379     C      0.226180000000     0.646000000000     0.503310000000    -0.0910166  
C380     C      0.202770000000     0.645610000000     0.502160000000     0.0740424  
C381     C      0.203090000000     0.606370000000     0.489330000000     0.0740764  
C382     C      0.262870000000     0.626260000000     0.497090000000     0.0345599  
C383     C      0.274510000000     0.629970000000     0.536920000000    -0.0908714  
C384     C      0.297920000000     0.629440000000     0.537000000000     0.073804   
C385     C      0.298320000000     0.622460000000     0.458860000000     0.0740443  
C386     C      0.274920000000     0.622360000000     0.457820000000    -0.0910476  
C387     C      0.224510000000     0.603560000000     0.000340000000    -0.0907564  
C388     C      0.236470000000     0.623400000000     0.993760000000     0.034529   
C389     C      0.224750000000     0.643370000000     0.987180000000    -0.091026   
C390     C      0.201360000000     0.643270000000     0.987880000000     0.0740824  
C391     C      0.201100000000     0.603960000000     0.999870000000     0.0739134  
C392     C      0.261140000000     0.623370000000     0.994410000000     0.0346084  
C393     C      0.273290000000     0.626690000000     0.955050000000    -0.0909331  
C394     C      0.296700000000     0.626700000000     0.956390000000     0.0739644  
C395     C      0.296050000000     0.620910000000     0.034920000000     0.0741517  
C396     C      0.272660000000     0.620320000000     0.034580000000    -0.0910737  
C397     C      0.119900000000     0.605340000000     0.793940000000    -0.0893345  
C398     C      0.124450000000     0.625090000000     0.770010000000     0.0343853  
C399     C      0.128680000000     0.644690000000     0.794630000000    -0.0894534  
C400     C      0.128010000000     0.644300000000     0.841320000000     0.0742552  
C401     C      0.120110000000     0.605400000000     0.840650000000     0.0742593  
C402     C      0.124830000000     0.625240000000     0.719930000000     0.0343416  
C403     C      0.130410000000     0.605870000000     0.695670000000    -0.0895207  
C404     C      0.130280000000     0.606160000000     0.648980000000     0.0743241  
C405     C      0.120430000000     0.644610000000     0.648940000000     0.073938   
C406     C      0.119660000000     0.644720000000     0.695650000000    -0.089153   
C407     C      0.119610000000     0.604900000000     0.195880000000    -0.0892085  
C408     C      0.125050000000     0.624390000000     0.219920000000     0.0343265  
C409     C      0.130310000000     0.643760000000     0.195400000000    -0.0894548  
C410     C      0.129630000000     0.643480000000     0.148730000000     0.0742284  
C411     C      0.119820000000     0.605020000000     0.149140000000     0.0739783  
C412     C      0.125250000000     0.624550000000     0.270020000000     0.0343681  
C413     C      0.129730000000     0.604970000000     0.294500000000    -0.0893449  
C414     C      0.129510000000     0.605370000000     0.341220000000     0.0742656  
C415     C      0.121630000000     0.644260000000     0.340810000000     0.0742598  
C416     C      0.120980000000     0.644310000000     0.294110000000    -0.0893483  
C417     C      0.774550000000     0.643420000000     0.484670000000    -0.0911621  
C418     C      0.762850000000     0.623370000000     0.490420000000     0.0346869  
C419     C      0.774810000000     0.603500000000     0.496560000000    -0.0910735  
C420     C      0.798220000000     0.603950000000     0.496550000000     0.0741369  
C421     C      0.797940000000     0.643350000000     0.485760000000     0.074053   
C422     C      0.738180000000     0.623310000000     0.490980000000     0.0346129  
C423     C      0.726030000000     0.626510000000     0.451580000000    -0.0909121  
C424     C      0.702620000000     0.626490000000     0.452910000000     0.0738501  
C425     C      0.703280000000     0.620860000000     0.531490000000     0.0741633  
C426     C      0.726670000000     0.620320000000     0.531170000000    -0.0911744  
C427     C      0.975770000000     0.644450000000     0.505470000000    -0.0891486  
C428     C      0.987950000000     0.624920000000     0.495500000000     0.0344228  
C429     C      0.975810000000     0.605420000000     0.485330000000    -0.0895218  
C430     C      0.952430000000     0.605660000000     0.485960000000     0.0744456  
C431     C      0.952350000000     0.644250000000     0.504420000000     0.0741857  
C432     C      0.013040000000     0.624880000000     0.495440000000     0.0345071  
C433     C      0.025210000000     0.605310000000     0.505150000000    -0.0892078  
C434     C      0.048620000000     0.605500000000     0.504030000000     0.0741117  
C435     C      0.048560000000     0.644140000000     0.485960000000     0.0744352  
C436     C      0.025170000000     0.644390000000     0.485400000000    -0.0895504  
C437     C      0.772770000000     0.606910000000     0.002930000000    -0.0910046  
C438     C      0.761090000000     0.626930000000     0.996690000000     0.0345723  
C439     C      0.773100000000     0.646700000000     0.989520000000    -0.0908089  
C440     C      0.796520000000     0.646180000000     0.989270000000     0.0738172  
C441     C      0.796160000000     0.606880000000     0.001440000000     0.0741459  
C442     C      0.736400000000     0.627130000000     0.997540000000     0.0345028  
C443     C      0.724860000000     0.622990000000     0.037320000000    -0.0907879  
C444     C      0.701440000000     0.623100000000     0.037500000000     0.0738164  
C445     C      0.700850000000     0.630630000000     0.959560000000     0.0738995  
C446     C      0.724250000000     0.631150000000     0.958450000000    -0.0909445  
C447     C      0.868550000000     0.643220000000     0.694380000000    -0.0894622  
C448     C      0.873730000000     0.623780000000     0.718750000000     0.0342969  
C449     C      0.878960000000     0.604280000000     0.694560000000    -0.0891769  
C450     C      0.878760000000     0.604510000000     0.647790000000     0.0738961  
C451     C      0.869220000000     0.643040000000     0.647730000000     0.0741515  
C452     C      0.873740000000     0.623940000000     0.768840000000     0.0343112  
C453     C      0.878400000000     0.643660000000     0.792730000000    -0.0894299  
C454     C      0.877870000000     0.643710000000     0.839410000000     0.0742857  
C455     C      0.869380000000     0.604940000000     0.840240000000     0.0738882  
C456     C      0.869070000000     0.604450000000     0.793500000000    -0.0891673  
C457     C      0.880080000000     0.606260000000     0.292580000000    -0.0894326  
C458     C      0.875340000000     0.626020000000     0.268850000000     0.0344048  
C459     C      0.871060000000     0.645540000000     0.293670000000    -0.0893362  
C460     C      0.871730000000     0.645030000000     0.340370000000     0.0741881  
C461     C      0.879870000000     0.606190000000     0.339280000000     0.0744226  
C462     C      0.874740000000     0.626200000000     0.218760000000     0.0344269  
C463     C      0.879600000000     0.645730000000     0.194330000000    -0.0892306  
C464     C      0.878700000000     0.645540000000     0.147590000000     0.0741132  
C465     C      0.869260000000     0.607000000000     0.147990000000     0.0745092  
C466     C      0.869240000000     0.606770000000     0.194650000000    -0.0897131  
C467     C      0.023490000000     0.644330000000     0.004900000000    -0.0891201  
C468     C      0.011340000000     0.624790000000     0.994830000000     0.0344454  
C469     C      0.023500000000     0.605270000000     0.984950000000    -0.0895567  
C470     C      0.046890000000     0.605500000000     0.985940000000     0.0744768  
C471     C      0.046910000000     0.644120000000     0.004180000000     0.074095   
C472     C      0.986240000000     0.624760000000     0.994440000000     0.0344125  
C473     C      0.974160000000     0.644310000000     0.984370000000    -0.0895003  
C474     C      0.950770000000     0.644110000000     0.984790000000     0.0743318  
C475     C      0.950590000000     0.605440000000     0.002670000000     0.0741135  
C476     C      0.974010000000     0.605210000000     0.003950000000    -0.0890208  
C477     C      0.379840000000     0.274400000000     0.455840000000    -0.0909008  
C478     C      0.375900000000     0.262540000000     0.495330000000     0.0346452  
C479     C      0.371750000000     0.274360000000     0.534760000000    -0.091149   
C480     C      0.371830000000     0.297760000000     0.534240000000     0.0740914  
C481     C      0.379270000000     0.297810000000     0.456260000000     0.0738109  
C482     C      0.375760000000     0.237840000000     0.495350000000     0.0346722  
C483     C      0.355820000000     0.226200000000     0.502820000000    -0.0912006  
C484     C      0.355860000000     0.202810000000     0.502580000000     0.0741271  
C485     C      0.395070000000     0.202380000000     0.489240000000     0.0738709  
C486     C      0.395510000000     0.225800000000     0.488210000000    -0.0908159  
C487     C      0.392660000000     0.225600000000     0.989300000000    -0.0910208  
C488     C      0.372680000000     0.237230000000     0.996420000000     0.0346023  
C489     C      0.352970000000     0.225170000000     0.003870000000    -0.0907963  
C490     C      0.353500000000     0.201750000000     0.003540000000     0.0739427  
C491     C      0.392710000000     0.202210000000     0.990260000000     0.0741214  
C492     C      0.372490000000     0.261920000000     0.996110000000     0.0345276  
C493     C      0.376800000000     0.273660000000     0.956620000000    -0.0909681  
C494     C      0.376790000000     0.297070000000     0.956950000000     0.0739467  
C495     C      0.369070000000     0.297280000000     0.034830000000     0.0739287  
C496     C      0.368430000000     0.273880000000     0.035420000000    -0.0908387  
C497     C      0.394130000000     0.130040000000     0.796910000000    -0.0893733  
C498     C      0.374550000000     0.125370000000     0.772520000000     0.0343663  
C499     C      0.354970000000     0.120450000000     0.796720000000    -0.08941    
C500     C      0.355180000000     0.120710000000     0.843420000000     0.074457   
C501     C      0.393910000000     0.129370000000     0.843610000000     0.074206   
C502     C      0.374550000000     0.125590000000     0.722400000000     0.034448   
C503     C      0.394140000000     0.120960000000     0.698040000000    -0.0894576  
C504     C      0.393910000000     0.121540000000     0.651340000000     0.0744073  
C505     C      0.355150000000     0.130070000000     0.651470000000     0.0742833  
C506     C      0.354950000000     0.130410000000     0.698180000000    -0.089449   
C507     C      0.354810000000     0.129780000000     0.296750000000    -0.0893909  
C508     C      0.374320000000     0.124740000000     0.272490000000     0.0343259  
C509     C      0.393850000000     0.119730000000     0.296740000000    -0.0893712  
C510     C      0.393650000000     0.120200000000     0.343450000000     0.0742015  
C511     C      0.355050000000     0.129440000000     0.343460000000     0.0740584  
C512     C      0.374320000000     0.124750000000     0.222430000000     0.0343765  
C513     C      0.354810000000     0.119660000000     0.198170000000    -0.089406   
C514     C      0.355030000000     0.120110000000     0.151450000000     0.0740368  
C515     C      0.393600000000     0.129500000000     0.151500000000     0.0741116  
C516     C      0.393810000000     0.129880000000     0.198210000000    -0.0894164  
C517     C      0.394890000000     0.774470000000     0.508700000000    -0.0910017  
C518     C      0.375000000000     0.762520000000     0.502760000000     0.0346656  
C519     C      0.354940000000     0.774230000000     0.497180000000    -0.0910299  
C520     C      0.355030000000     0.797630000000     0.498030000000     0.0740732  
C521     C      0.394470000000     0.797880000000     0.508410000000     0.0740229  
C522     C      0.375180000000     0.737850000000     0.502200000000     0.0345471  
C523     C      0.371560000000     0.726230000000     0.462310000000    -0.0910245  
C524     C      0.371940000000     0.702830000000     0.462250000000     0.0739756  
C525     C      0.378700000000     0.702390000000     0.540480000000     0.073966   
C526     C      0.378910000000     0.725790000000     0.541520000000    -0.0909597  
C527     C      0.353840000000     0.975420000000     0.510320000000    -0.089229   
C528     C      0.373430000000     0.987630000000     0.501110000000     0.034513   
C529     C      0.393130000000     0.975510000000     0.492380000000    -0.0893731  
C530     C      0.393050000000     0.952120000000     0.493900000000     0.0744319  
C531     C      0.354200000000     0.952010000000     0.510070000000     0.0743067  
C532     C      0.373380000000     0.012730000000     0.500710000000     0.0344048  
C533     C      0.353920000000     0.024900000000     0.490160000000    -0.0890022  
C534     C      0.354220000000     0.048330000000     0.490380000000     0.0739776  
C535     C      0.392770000000     0.048260000000     0.509250000000     0.0744925  
C536     C      0.392880000000     0.024900000000     0.510840000000    -0.0895135  
C537     C      0.353960000000     0.773910000000     0.011630000000    -0.0908896  
C538     C      0.373670000000     0.761880000000     0.003980000000     0.0345772  
C539     C      0.393600000000     0.773550000000     0.996480000000    -0.0910017  
C540     C      0.393580000000     0.796950000000     0.997130000000     0.0739463  
C541     C      0.354420000000     0.797320000000     0.011030000000     0.0739266  
C542     C      0.373400000000     0.737200000000     0.003210000000     0.0346578  
C543     C      0.376650000000     0.725700000000     0.963080000000    -0.0911282  
C544     C      0.376240000000     0.702300000000     0.962740000000     0.0740677  
C545     C      0.370180000000     0.701610000000     0.041180000000     0.073877   
C546     C      0.369980000000     0.725020000000     0.042510000000    -0.0908754  
C547     C      0.393450000000     0.879460000000     0.802430000000    -0.0894458  
C548     C      0.373870000000     0.874490000000     0.778290000000     0.0343461  
C549     C      0.354390000000     0.869460000000     0.802720000000    -0.089351   
C550     C      0.354730000000     0.869800000000     0.849460000000     0.0741608  
C551     C      0.393360000000     0.878900000000     0.849100000000     0.0742091  
C552     C      0.373830000000     0.874540000000     0.728180000000     0.0343937  
C553     C      0.354230000000     0.879240000000     0.703900000000    -0.0893236  
C554     C      0.354490000000     0.878950000000     0.657170000000     0.0741942  
C555     C      0.393270000000     0.870520000000     0.657210000000     0.0743355  
C556     C      0.393450000000     0.869920000000     0.703890000000    -0.0894697  
C557     C      0.394530000000     0.879380000000     0.302790000000    -0.0894178  
C558     C      0.375020000000     0.874660000000     0.278260000000     0.0343996  
C559     C      0.355340000000     0.869940000000     0.302260000000    -0.0893785  
C560     C      0.355370000000     0.870420000000     0.348960000000     0.0741931  
C561     C      0.394120000000     0.879000000000     0.349500000000     0.0742934  
C562     C      0.375160000000     0.874750000000     0.228190000000     0.0343818  
C563     C      0.394680000000     0.869620000000     0.203970000000    -0.0892064  
C564     C      0.394500000000     0.870040000000     0.157230000000     0.073989   
C565     C      0.355960000000     0.879540000000     0.157210000000     0.0744029  
C566     C      0.355720000000     0.879980000000     0.203880000000    -0.0895863  
C567     C      0.395200000000     0.024470000000     0.009200000000    -0.0889731  
C568     C      0.375760000000     0.012120000000     0.999340000000     0.0343396  
C569     C      0.356280000000     0.024090000000     0.988230000000    -0.0894991  
C570     C      0.356360000000     0.047470000000     0.988330000000     0.074515   
C571     C      0.394870000000     0.047890000000     0.007490000000     0.0739525  
C572     C      0.375720000000     0.987020000000     0.000670000000     0.0345782  
C573     C      0.395320000000     0.974660000000     0.992420000000    -0.0892493  
C574     C      0.394940000000     0.951260000000     0.994100000000     0.0742095  
C575     C      0.356060000000     0.951660000000     0.010000000000     0.074513   
C576     C      0.356000000000     0.975050000000     0.010080000000    -0.0894075  
H1       H      0.866220000000     0.410130000000     0.787220000000     0.0486826  
H2       H      0.866880000000     0.409920000000     0.867870000000     0.0215683  
H3       H      0.882180000000     0.339890000000     0.867990000000     0.0216552  
H4       H      0.883570000000     0.339750000000     0.787460000000     0.0487626  
H5       H      0.864760000000     0.340150000000     0.722120000000     0.0487699  
H6       H      0.866000000000     0.340180000000     0.641580000000     0.0218737  
H7       H      0.884540000000     0.409420000000     0.641390000000     0.0218008  
H8       H      0.885360000000     0.409640000000     0.722040000000     0.048875   
H9       H      0.865570000000     0.339250000000     0.222000000000     0.0486921  
H10      H      0.866560000000     0.339500000000     0.141370000000     0.0215922  
H11      H      0.881760000000     0.409560000000     0.141660000000     0.0216469  
H12      H      0.882790000000     0.409650000000     0.222240000000     0.0488214  
H13      H      0.863720000000     0.409110000000     0.287420000000     0.0487503  
H14      H      0.864910000000     0.409010000000     0.368000000000     0.0218184  
H15      H      0.883760000000     0.339850000000     0.367940000000     0.0218591  
H16      H      0.884600000000     0.339700000000     0.287310000000     0.0487779  
H17      H      0.984090000000     0.340280000000     0.522930000000     0.0488679  
H18      H      0.943700000000     0.340320000000     0.522260000000     0.0218702  
H19      H      0.943230000000     0.409390000000     0.484000000000     0.0218308  
H20      H      0.983590000000     0.409580000000     0.480520000000     0.0488726  
H21      H      0.016650000000     0.410250000000     0.517000000000     0.048839   
H22      H      0.057010000000     0.410080000000     0.513760000000     0.0215535  
H23      H      0.056820000000     0.339880000000     0.484820000000     0.021593   
H24      H      0.016430000000     0.339690000000     0.483950000000     0.0487803  
H25      H      0.134950000000     0.408840000000     0.780890000000     0.0487792  
H26      H      0.133660000000     0.408970000000     0.861390000000     0.021814   
H27      H      0.115560000000     0.339610000000     0.862110000000     0.0218739  
H28      H      0.114850000000     0.339210000000     0.781380000000     0.0487841  
H29      H      0.133950000000     0.338900000000     0.715820000000     0.0487059  
H30      H      0.133270000000     0.339240000000     0.635050000000     0.0217122  
H31      H      0.117030000000     0.409060000000     0.635580000000     0.0217352  
H32      H      0.115710000000     0.409040000000     0.716030000000     0.0488228  
H33      H      0.135590000000     0.341070000000     0.216210000000     0.0487454  
H34      H      0.134460000000     0.340960000000     0.135670000000     0.0218577  
H35      H      0.116120000000     0.410260000000     0.134930000000     0.021873   
H36      H      0.115260000000     0.410630000000     0.215620000000     0.0488683  
H37      H      0.134210000000     0.410960000000     0.281360000000     0.0487241  
H38      H      0.133210000000     0.410620000000     0.362100000000     0.0217212  
H39      H      0.117020000000     0.340790000000     0.361340000000     0.0217909  
H40      H      0.116030000000     0.340800000000     0.280840000000     0.0487654  
H41      H      0.016040000000     0.340060000000     0.022890000000     0.048812   
H42      H      0.056390000000     0.340240000000     0.019310000000     0.0218967  
H43      H      0.055930000000     0.409290000000     0.980870000000     0.0218231  
H44      H      0.015530000000     0.409340000000     0.980360000000     0.0488779  
H45      H      0.983230000000     0.409920000000     0.019700000000     0.0488519  
H46      H      0.942830000000     0.409730000000     0.018970000000     0.0216241  
H47      H      0.942620000000     0.339570000000     0.989550000000     0.0215972  
H48      H      0.982980000000     0.339410000000     0.986240000000     0.0488691  
H49      H      0.734070000000     0.380810000000     0.576200000000     0.0510227  
H50      H      0.693240000000     0.380420000000     0.574240000000     0.0219545  
H51      H      0.694800000000     0.367900000000     0.433200000000     0.0219596  
H52      H      0.735540000000     0.367510000000     0.434690000000     0.0510814  
H53      H      0.765720000000     0.338910000000     0.491250000000     0.050936   
H54      H      0.806510000000     0.339150000000     0.491870000000     0.0220884  
H55      H      0.806300000000     0.409490000000     0.520510000000     0.022096   
H56      H      0.765500000000     0.409450000000     0.521430000000     0.0511525  
H57      H      0.615310000000     0.483460000000     0.566230000000     0.0488564  
H58      H      0.616420000000     0.443150000000     0.566920000000     0.0216032  
H59      H      0.634000000000     0.442260000000     0.428230000000     0.021606   
H60      H      0.635000000000     0.482700000000     0.426990000000     0.0487835  
H61      H      0.616380000000     0.515650000000     0.426150000000     0.0488427  
H62      H      0.617440000000     0.556050000000     0.426210000000     0.0215689  
H63      H      0.633420000000     0.556260000000     0.565680000000     0.0215144  
H64      H      0.634450000000     0.515910000000     0.566260000000     0.0487093  
H65      H      0.733580000000     0.368090000000     0.073530000000     0.0511192  
H66      H      0.692780000000     0.368490000000     0.072290000000     0.0220874  
H67      H      0.693680000000     0.381410000000     0.931360000000     0.0221506  
H68      H      0.734480000000     0.381720000000     0.932150000000     0.0511637  
H69      H      0.764720000000     0.339140000000     0.013300000000     0.0510108  
H70      H      0.805520000000     0.339220000000     0.013330000000     0.0219305  
H71      H      0.805680000000     0.410440000000     0.995260000000     0.0219736  
H72      H      0.764890000000     0.410620000000     0.993850000000     0.0511507  
H73      H      0.634550000000     0.483900000000     0.069770000000     0.0488183  
H74      H      0.633430000000     0.443530000000     0.069390000000     0.0218344  
H75      H      0.616370000000     0.443640000000     0.930410000000     0.02178    
H76      H      0.615490000000     0.484050000000     0.930210000000     0.0488445  
H77      H      0.634660000000     0.516740000000     0.930450000000     0.0487465  
H78      H      0.633550000000     0.557120000000     0.930910000000     0.0217702  
H79      H      0.616290000000     0.556940000000     0.069780000000     0.0218045  
H80      H      0.615390000000     0.516550000000     0.069900000000     0.0488362  
H81      H      0.517400000000     0.634000000000     0.570100000000     0.0487003  
H82      H      0.557860000000     0.632870000000     0.568560000000     0.0216619  
H83      H      0.556680000000     0.616970000000     0.429050000000     0.0217607  
H84      H      0.516370000000     0.616120000000     0.429930000000     0.0488846  
H85      H      0.484190000000     0.635920000000     0.431190000000     0.0488346  
H86      H      0.443870000000     0.634940000000     0.431430000000     0.0218439  
H87      H      0.443800000000     0.616300000000     0.569590000000     0.0217813  
H88      H      0.484260000000     0.615290000000     0.569850000000     0.0488314  
H89      H      0.515230000000     0.634480000000     0.071710000000     0.0488213  
H90      H      0.555650000000     0.633480000000     0.071030000000     0.0218241  
H91      H      0.555290000000     0.615540000000     0.932500000000     0.0218463  
H92      H      0.514920000000     0.614550000000     0.932640000000     0.048889   
H93      H      0.482760000000     0.634480000000     0.932230000000     0.0487931  
H94      H      0.442440000000     0.633720000000     0.931860000000     0.0216654  
H95      H      0.441670000000     0.616950000000     0.070960000000     0.0216794  
H96      H      0.482130000000     0.615740000000     0.071950000000     0.0488398  
H97      H      0.234760000000     0.339540000000     0.482800000000     0.0509075  
H98      H      0.193970000000     0.339650000000     0.484210000000     0.0220087  
H99      H      0.194080000000     0.410100000000     0.511660000000     0.0220205  
H100     H      0.234880000000     0.410200000000     0.511820000000     0.0510777  
H101     H      0.265900000000     0.382330000000     0.567300000000     0.0510444  
H102     H      0.306680000000     0.381960000000     0.566550000000     0.0220848  
H103     H      0.306240000000     0.367830000000     0.426090000000     0.0220687  
H104     H      0.265430000000     0.367410000000     0.426420000000     0.0509671  
H105     H      0.483800000000     0.364280000000     0.564460000000     0.0488031  
H106     H      0.443480000000     0.365490000000     0.564090000000     0.0218068  
H107     H      0.443620000000     0.383810000000     0.425750000000     0.0218178  
H108     H      0.484080000000     0.384600000000     0.425600000000     0.0488499  
H109     H      0.517060000000     0.365630000000     0.425570000000     0.0487474  
H110     H      0.557530000000     0.366460000000     0.427180000000     0.021611   
H111     H      0.556400000000     0.382690000000     0.566530000000     0.0216674  
H112     H      0.516100000000     0.383860000000     0.565560000000     0.0488785  
H113     H      0.365210000000     0.516200000000     0.566740000000     0.048845   
H114     H      0.366250000000     0.556580000000     0.567250000000     0.0218763  
H115     H      0.383910000000     0.557250000000     0.428570000000     0.0218285  
H116     H      0.384800000000     0.516830000000     0.427500000000     0.04888    
H117     H      0.365360000000     0.484130000000     0.426940000000     0.0487479  
H118     H      0.366300000000     0.443710000000     0.426730000000     0.0218307  
H119     H      0.383820000000     0.443290000000     0.565480000000     0.0218781  
H120     H      0.384800000000     0.483670000000     0.566270000000     0.0488708  
H121     H      0.234010000000     0.339930000000     0.981370000000     0.0508992  
H122     H      0.193230000000     0.339940000000     0.983030000000     0.022091   
H123     H      0.193210000000     0.410310000000     0.011320000000     0.0220655  
H124     H      0.234010000000     0.410510000000     0.011240000000     0.0510632  
H125     H      0.265000000000     0.383010000000     0.066220000000     0.0510086  
H126     H      0.305780000000     0.382460000000     0.065720000000     0.0220839  
H127     H      0.305490000000     0.367710000000     0.925500000000     0.0220732  
H128     H      0.264680000000     0.367470000000     0.925590000000     0.0509831  
H129     H      0.483320000000     0.383700000000     0.926750000000     0.0488375  
H130     H      0.442910000000     0.382430000000     0.926400000000     0.021811   
H131     H      0.442510000000     0.365080000000     0.065230000000     0.0218667  
H132     H      0.482890000000     0.364410000000     0.066170000000     0.0488109  
H133     H      0.515200000000     0.384320000000     0.066840000000     0.0488656  
H134     H      0.555610000000     0.383750000000     0.067570000000     0.0218715  
H135     H      0.556640000000     0.366170000000     0.928860000000     0.0218318  
H136     H      0.516260000000     0.364790000000     0.927560000000     0.0487137  
H137     H      0.364990000000     0.483260000000     0.925530000000     0.0488706  
H138     H      0.366000000000     0.442850000000     0.925770000000     0.0218527  
H139     H      0.383900000000     0.442840000000     0.064320000000     0.0217837  
H140     H      0.384870000000     0.483210000000     0.064630000000     0.0488681  
H141     H      0.365030000000     0.515420000000     0.065310000000     0.048739   
H142     H      0.365610000000     0.555750000000     0.065880000000     0.0216753  
H143     H      0.382330000000     0.556760000000     0.926760000000     0.0216955  
H144     H      0.383730000000     0.516320000000     0.925570000000     0.048829   
H145     H      0.591050000000     0.764380000000     0.485090000000     0.0511959  
H146     H      0.590590000000     0.805130000000     0.486670000000     0.0219998  
H147     H      0.661680000000     0.806100000000     0.506570000000     0.0219946  
H148     H      0.662390000000     0.765270000000     0.506420000000     0.0509733  
H149     H      0.633890000000     0.733990000000     0.566100000000     0.0511378  
H150     H      0.633220000000     0.693200000000     0.565860000000     0.0220587  
H151     H      0.620060000000     0.693300000000     0.425010000000     0.0220133  
H152     H      0.620000000000     0.734100000000     0.424810000000     0.051109   
H153     H      0.586960000000     0.766190000000     0.988340000000     0.0510639  
H154     H      0.587740000000     0.807030000000     0.988550000000     0.0219652  
H155     H      0.658740000000     0.805900000000     0.009640000000     0.022025   
H156     H      0.658210000000     0.765160000000     0.010920000000     0.0510007  
H157     H      0.629980000000     0.735040000000     0.070340000000     0.0511194  
H158     H      0.629980000000     0.694250000000     0.070340000000     0.0221255  
H159     H      0.615410000000     0.693940000000     0.930040000000     0.022104   
H160     H      0.614660000000     0.734740000000     0.929630000000     0.0510879  
H161     H      0.659850000000     0.883280000000     0.715530000000     0.0487636  
H162     H      0.659670000000     0.882080000000     0.635020000000     0.0216647  
H163     H      0.589920000000     0.865530000000     0.635140000000     0.0215422  
H164     H      0.589800000000     0.864620000000     0.715790000000     0.0486827  
H165     H      0.589870000000     0.883690000000     0.780800000000     0.0488046  
H166     H      0.590020000000     0.883060000000     0.861350000000     0.0215979  
H167     H      0.659710000000     0.866270000000     0.861760000000     0.0215933  
H168     H      0.659860000000     0.864790000000     0.781170000000     0.0486899  
H169     H      0.659560000000     0.865630000000     0.215510000000     0.0487967  
H170     H      0.659310000000     0.866620000000     0.135000000000     0.0216958  
H171     H      0.589680000000     0.883670000000     0.135210000000     0.0216795  
H172     H      0.589640000000     0.884730000000     0.215890000000     0.0488435  
H173     H      0.659720000000     0.884570000000     0.280830000000     0.0488343  
H174     H      0.659720000000     0.883240000000     0.361470000000     0.0216665  
H175     H      0.590060000000     0.866340000000     0.361600000000     0.0216888  
H176     H      0.589760000000     0.865620000000     0.281060000000     0.0488049  
H177     H      0.590110000000     0.234270000000     0.518160000000     0.0511563  
H178     H      0.589930000000     0.193480000000     0.516860000000     0.0221126  
H179     H      0.660600000000     0.193060000000     0.491630000000     0.0220304  
H180     H      0.661000000000     0.233860000000     0.491430000000     0.0509254  
H181     H      0.632240000000     0.264310000000     0.433490000000     0.0511241  
H182     H      0.631820000000     0.305060000000     0.432430000000     0.021955   
H183     H      0.619400000000     0.306220000000     0.573520000000     0.0219722  
H184     H      0.619070000000     0.265390000000     0.575040000000     0.0510795  
H185     H      0.658840000000     0.015690000000     0.482850000000     0.0487877  
H186     H      0.658970000000     0.056000000000     0.485680000000     0.0214819  
H187     H      0.588910000000     0.056400000000     0.515900000000     0.0214947  
H188     H      0.588440000000     0.016000000000     0.517450000000     0.0487579  
H189     H      0.588640000000     0.982950000000     0.481220000000     0.0488404  
H190     H      0.588990000000     0.942500000000     0.482950000000     0.0215404  
H191     H      0.658560000000     0.942870000000     0.517360000000     0.0216309  
H192     H      0.658480000000     0.983140000000     0.520020000000     0.0488581  
H193     H      0.632510000000     0.265560000000     0.930620000000     0.0510186  
H194     H      0.632150000000     0.306350000000     0.930500000000     0.0220751  
H195     H      0.616810000000     0.306640000000     0.070450000000     0.0220446  
H196     H      0.616370000000     0.265860000000     0.070980000000     0.051036   
H197     H      0.589160000000     0.234710000000     0.015120000000     0.0510029  
H198     H      0.589520000000     0.193910000000     0.014910000000     0.0220366  
H199     H      0.660070000000     0.194250000000     0.988560000000     0.022044   
H200     H      0.659950000000     0.235020000000     0.987190000000     0.0508921  
H201     H      0.660020000000     0.115300000000     0.785190000000     0.0487994  
H202     H      0.659940000000     0.116720000000     0.865710000000     0.0216583  
H203     H      0.590230000000     0.133430000000     0.865690000000     0.0216359  
H204     H      0.590020000000     0.134130000000     0.785060000000     0.0487584  
H205     H      0.589990000000     0.115090000000     0.720020000000     0.0488198  
H206     H      0.590070000000     0.115930000000     0.639450000000     0.0216307  
H207     H      0.659810000000     0.132520000000     0.639000000000     0.0217286  
H208     H      0.660030000000     0.133780000000     0.719580000000     0.0487307  
H209     H      0.660010000000     0.135240000000     0.220240000000     0.0487288  
H210     H      0.660110000000     0.134160000000     0.139550000000     0.0216422  
H211     H      0.590470000000     0.117130000000     0.138940000000     0.0217836  
H212     H      0.590080000000     0.116190000000     0.219460000000     0.0488343  
H213     H      0.589850000000     0.135160000000     0.284830000000     0.0487376  
H214     H      0.589770000000     0.133830000000     0.365520000000     0.0216059  
H215     H      0.659390000000     0.116740000000     0.365840000000     0.0217666  
H216     H      0.659760000000     0.116050000000     0.285330000000     0.0488149  
H217     H      0.591290000000     0.984240000000     0.979690000000     0.0488764  
H218     H      0.591150000000     0.943950000000     0.980600000000     0.0216422  
H219     H      0.660670000000     0.943090000000     0.015360000000     0.0216295  
H220     H      0.661090000000     0.983500000000     0.018850000000     0.0487786  
H221     H      0.661370000000     0.016950000000     0.984160000000     0.0487862  
H222     H      0.660960000000     0.057320000000     0.987520000000     0.0215348  
H223     H      0.590880000000     0.056690000000     0.017470000000     0.021465   
H224     H      0.590940000000     0.016350000000     0.018480000000     0.0488714  
H225     H      0.234850000000     0.661690000000     0.509000000000     0.0510293  
H226     H      0.194030000000     0.661330000000     0.507350000000     0.0219793  
H227     H      0.194630000000     0.590530000000     0.483770000000     0.0220409  
H228     H      0.235400000000     0.590660000000     0.483930000000     0.0511467  
H229     H      0.265560000000     0.632970000000     0.567890000000     0.0510877  
H230     H      0.306370000000     0.632260000000     0.568610000000     0.0221004  
H231     H      0.307070000000     0.619460000000     0.427640000000     0.0220523  
H232     H      0.266290000000     0.619430000000     0.426470000000     0.0510857  
H233     H      0.233640000000     0.659010000000     0.982110000000     0.0510119  
H234     H      0.192870000000     0.659140000000     0.982930000000     0.0220256  
H235     H      0.192390000000     0.588210000000     0.004970000000     0.0220899  
H236     H      0.233220000000     0.587830000000     0.005530000000     0.0511269  
H237     H      0.264740000000     0.629110000000     0.923430000000     0.0511329  
H238     H      0.305560000000     0.629250000000     0.925140000000     0.0220003  
H239     H      0.304380000000     0.618600000000     0.066820000000     0.0219766  
H240     H      0.263620000000     0.617770000000     0.065610000000     0.0511767  
H241     H      0.132850000000     0.660310000000     0.778280000000     0.048698   
H242     H      0.131410000000     0.659850000000     0.858800000000     0.021576   
H243     H      0.116560000000     0.589730000000     0.857600000000     0.0214887  
H244     H      0.115890000000     0.589830000000     0.776990000000     0.0487695  
H245     H      0.135170000000     0.590500000000     0.712330000000     0.0488121  
H246     H      0.134660000000     0.590760000000     0.631790000000     0.0217342  
H247     H      0.116300000000     0.660050000000     0.631700000000     0.0217373  
H248     H      0.114680000000     0.660040000000     0.712290000000     0.0487171  
H249     H      0.135260000000     0.659140000000     0.211820000000     0.0487243  
H250     H      0.133790000000     0.658880000000     0.131360000000     0.0217823  
H251     H      0.115520000000     0.589570000000     0.132070000000     0.0216581  
H252     H      0.114860000000     0.589580000000     0.212750000000     0.0487991  
H253     H      0.133730000000     0.589330000000     0.278000000000     0.0486325  
H254     H      0.133040000000     0.589810000000     0.358600000000     0.0215211  
H255     H      0.118240000000     0.659940000000     0.357860000000     0.0215232  
H256     H      0.116810000000     0.659820000000     0.277320000000     0.0487412  
H257     H      0.766110000000     0.587730000000     0.501160000000     0.0512662  
H258     H      0.806930000000     0.588180000000     0.501320000000     0.0220422  
H259     H      0.806430000000     0.659270000000     0.481470000000     0.0220638  
H260     H      0.765650000000     0.659070000000     0.479980000000     0.0511285  
H261     H      0.734580000000     0.628880000000     0.419950000000     0.0511481  
H262     H      0.693750000000     0.628960000000     0.421650000000     0.022044   
H263     H      0.694960000000     0.618600000000     0.563420000000     0.0220807  
H264     H      0.735710000000     0.617860000000     0.562220000000     0.0512597  
H265     H      0.984180000000     0.590000000000     0.476190000000     0.0489021  
H266     H      0.943850000000     0.590150000000     0.477860000000     0.0218262  
H267     H      0.943690000000     0.659730000000     0.512290000000     0.0216443  
H268     H      0.984130000000     0.659870000000     0.514670000000     0.048798   
H269     H      0.016860000000     0.589870000000     0.514230000000     0.0488508  
H270     H      0.057280000000     0.589990000000     0.511750000000     0.0216709  
H271     H      0.057150000000     0.659660000000     0.478020000000     0.0218214  
H272     H      0.016800000000     0.659840000000     0.476460000000     0.048876   
H273     H      0.764440000000     0.662470000000     0.984590000000     0.0508941  
H274     H      0.805270000000     0.661870000000     0.983860000000     0.0219826  
H275     H      0.804610000000     0.590980000000     0.006250000000     0.0219836  
H276     H      0.763860000000     0.591330000000     0.008470000000     0.0511491  
H277     H      0.733890000000     0.619830000000     0.068140000000     0.0510574  
H278     H      0.693080000000     0.619880000000     0.069050000000     0.0220948  
H279     H      0.692010000000     0.633660000000     0.928460000000     0.0220773  
H280     H      0.732800000000     0.634360000000     0.927120000000     0.0510425  
H281     H      0.883580000000     0.588900000000     0.711340000000     0.0488221  
H282     H      0.882960000000     0.589070000000     0.630590000000     0.0216803  
H283     H      0.865160000000     0.658510000000     0.630510000000     0.0217974  
H284     H      0.863710000000     0.658600000000     0.710940000000     0.0486952  
H285     H      0.882780000000     0.659080000000     0.775800000000     0.0487327  
H286     H      0.881550000000     0.659380000000     0.856260000000     0.0216184  
H287     H      0.865670000000     0.589480000000     0.857810000000     0.0216796  
H288     H      0.864840000000     0.588850000000     0.777100000000     0.0486802  
H289     H      0.866790000000     0.661180000000     0.277470000000     0.0486776  
H290     H      0.868250000000     0.660510000000     0.358030000000     0.0215983  
H291     H      0.883520000000     0.590490000000     0.356050000000     0.021453   
H292     H      0.884210000000     0.590820000000     0.275500000000     0.0487996  
H293     H      0.884440000000     0.661110000000     0.210850000000     0.0488147  
H294     H      0.882630000000     0.660990000000     0.130180000000     0.0215996  
H295     H      0.864980000000     0.591520000000     0.130970000000     0.0216066  
H296     H      0.864640000000     0.591380000000     0.211410000000     0.0488058  
H297     H      0.015170000000     0.589840000000     0.975770000000     0.0489008  
H298     H      0.055490000000     0.589980000000     0.978070000000     0.0217589  
H299     H      0.055550000000     0.659610000000     0.012110000000     0.0216965  
H300     H      0.015110000000     0.659760000000     0.013910000000     0.0488319  
H301     H      0.982560000000     0.659750000000     0.975540000000     0.0488621  
H302     H      0.942230000000     0.659650000000     0.976870000000     0.0217848  
H303     H      0.941890000000     0.589950000000     0.010270000000     0.0216131  
H304     H      0.982310000000     0.589740000000     0.013040000000     0.0487885  
H305     H      0.368630000000     0.265570000000     0.565850000000     0.0511311  
H306     H      0.368630000000     0.306340000000     0.565580000000     0.0221014  
H307     H      0.382260000000     0.306440000000     0.424910000000     0.0220755  
H308     H      0.383030000000     0.265620000000     0.424760000000     0.0510726  
H309     H      0.340270000000     0.235140000000     0.508420000000     0.0510215  
H310     H      0.340020000000     0.194390000000     0.508320000000     0.0220354  
H311     H      0.410740000000     0.193590000000     0.483830000000     0.0220012  
H312     H      0.411220000000     0.234430000000     0.482420000000     0.0510975  
H313     H      0.337230000000     0.233790000000     0.009440000000     0.0508931  
H314     H      0.337860000000     0.192940000000     0.009200000000     0.021976   
H315     H      0.408590000000     0.193820000000     0.984810000000     0.0220371  
H316     H      0.408200000000     0.234550000000     0.983520000000     0.0511056  
H317     H      0.380020000000     0.264790000000     0.925660000000     0.051082   
H318     H      0.380130000000     0.305580000000     0.925610000000     0.0220683  
H319     H      0.366000000000     0.305970000000     0.066080000000     0.022101   
H320     H      0.365120000000     0.265170000000     0.066540000000     0.051033   
H321     H      0.339490000000     0.116090000000     0.780010000000     0.0487586  
H322     H      0.339630000000     0.116850000000     0.860570000000     0.021488   
H323     H      0.409440000000     0.133090000000     0.860920000000     0.0214408  
H324     H      0.409610000000     0.134550000000     0.780390000000     0.0486927  
H325     H      0.409640000000     0.116530000000     0.714580000000     0.0487952  
H326     H      0.409460000000     0.117840000000     0.634070000000     0.0214379  
H327     H      0.339590000000     0.133830000000     0.634290000000     0.021442   
H328     H      0.339460000000     0.134730000000     0.714860000000     0.0487022  
H329     H      0.409270000000     0.115140000000     0.280030000000     0.0488522  
H330     H      0.409150000000     0.116240000000     0.360650000000     0.0217656  
H331     H      0.339560000000     0.133460000000     0.360650000000     0.0218119  
H332     H      0.339380000000     0.134330000000     0.280040000000     0.0487317  
H333     H      0.339410000000     0.115030000000     0.214860000000     0.0488664  
H334     H      0.339560000000     0.116070000000     0.134230000000     0.0218161  
H335     H      0.409080000000     0.133570000000     0.134320000000     0.0217842  
H336     H      0.409220000000     0.134500000000     0.214930000000     0.0487581  
H337     H      0.339270000000     0.765340000000     0.492560000000     0.0510358  
H338     H      0.339120000000     0.806130000000     0.493740000000     0.0219793  
H339     H      0.410260000000     0.806580000000     0.512860000000     0.0219653  
H340     H      0.410680000000     0.765770000000     0.513050000000     0.0511677  
H341     H      0.368650000000     0.735200000000     0.431340000000     0.0512094  
H342     H      0.369160000000     0.694410000000     0.430600000000     0.0221454  
H343     H      0.381540000000     0.693610000000     0.571720000000     0.0220628  
H344     H      0.381740000000     0.734420000000     0.572920000000     0.0510901  
H345     H      0.408630000000     0.983860000000     0.483760000000     0.0488361  
H346     H      0.408700000000     0.943550000000     0.487000000000     0.021551   
H347     H      0.338650000000     0.943330000000     0.517360000000     0.0216151  
H348     H      0.338240000000     0.983740000000     0.518400000000     0.0487543  
H349     H      0.338490000000     0.016550000000     0.481030000000     0.0487754  
H350     H      0.338810000000     0.057000000000     0.481990000000     0.0217089  
H351     H      0.408280000000     0.056850000000     0.517230000000     0.0216952  
H352     H      0.408230000000     0.016580000000     0.520570000000     0.0488776  
H353     H      0.409120000000     0.764620000000     0.990470000000     0.0511917  
H354     H      0.409400000000     0.805400000000     0.991310000000     0.0221041  
H355     H      0.338760000000     0.806070000000     0.016810000000     0.0220512  
H356     H      0.338260000000     0.765260000000     0.017430000000     0.0509621  
H357     H      0.379310000000     0.734750000000     0.932100000000     0.0511232  
H358     H      0.378750000000     0.693990000000     0.930880000000     0.0219733  
H359     H      0.367610000000     0.692720000000     0.072400000000     0.0219869  
H360     H      0.367440000000     0.733550000000     0.074110000000     0.0510794  
H361     H      0.338920000000     0.864950000000     0.786170000000     0.0487541  
H362     H      0.339280000000     0.865830000000     0.866840000000     0.0216258  
H363     H      0.408910000000     0.882830000000     0.866160000000     0.0216264  
H364     H      0.408840000000     0.884110000000     0.785710000000     0.0487773  
H365     H      0.338710000000     0.883480000000     0.720570000000     0.0487772  
H366     H      0.338940000000     0.882670000000     0.639930000000     0.0216022  
H367     H      0.408860000000     0.866880000000     0.640010000000     0.0215247  
H368     H      0.408950000000     0.865530000000     0.720490000000     0.0486673  
H369     H      0.339900000000     0.865570000000     0.285390000000     0.0486516  
H370     H      0.339750000000     0.866700000000     0.365960000000     0.0215411  
H371     H      0.409610000000     0.882750000000     0.366920000000     0.0216467  
H372     H      0.410090000000     0.883690000000     0.286330000000     0.0488534  
H373     H      0.410060000000     0.864940000000     0.220710000000     0.0487738  
H374     H      0.409960000000     0.865950000000     0.140000000000     0.0216654  
H375     H      0.340490000000     0.883650000000     0.140010000000     0.0217265  
H376     H      0.340320000000     0.884710000000     0.220480000000     0.0488316  
H377     H      0.340950000000     0.015610000000     0.978910000000     0.0488222  
H378     H      0.340850000000     0.055910000000     0.979720000000     0.0217042  
H379     H      0.410250000000     0.056700000000     0.015480000000     0.0216788  
H380     H      0.410610000000     0.016280000000     0.018970000000     0.0488243  
H381     H      0.410940000000     0.982840000000     0.983940000000     0.0487466  
H382     H      0.410490000000     0.942470000000     0.987430000000     0.0215096  
H383     H      0.340390000000     0.943200000000     0.017290000000     0.0215029  
H384     H      0.340490000000     0.983550000000     0.018070000000     0.0487923  
N1       N      0.874480000000     0.374900000000     0.873920000000    -0.207577   
N2       N      0.875280000000     0.374800000000     0.635500000000    -0.207533   
N3       N      0.874150000000     0.374540000000     0.135520000000    -0.207591   
N4       N      0.874380000000     0.374440000000     0.373960000000    -0.207453   
N5       N      0.940470000000     0.374840000000     0.503210000000    -0.20744    
N6       N      0.059910000000     0.374980000000     0.499250000000    -0.207594   
N7       N      0.124540000000     0.374320000000     0.867740000000    -0.207489   
N8       N      0.125240000000     0.374170000000     0.629320000000    -0.207496   
N9       N      0.125220000000     0.375580000000     0.129300000000    -0.207362   
N10      N      0.125180000000     0.375680000000     0.367720000000    -0.207369   
N11      N      0.059160000000     0.374770000000     0.000000000000    -0.207421   
N12      N      0.939730000000     0.374650000000     0.004300000000    -0.207574   
N13      N      0.690990000000     0.374170000000     0.503600000000    -0.207642   
N14      N      0.809430000000     0.374340000000     0.506090000000    -0.207471   
N15      N      0.625290000000     0.439710000000     0.497670000000    -0.207759   
N16      N      0.625400000000     0.559150000000     0.495940000000    -0.207694   
N17      N      0.690200000000     0.374950000000     0.001750000000    -0.207314   
N18      N      0.808630000000     0.374820000000     0.004320000000    -0.207348   
N19      N      0.624870000000     0.440580000000     0.999900000000    -0.207553   
N20      N      0.624890000000     0.560030000000     0.000350000000    -0.207525   
N21      N      0.560280000000     0.625000000000     0.498690000000    -0.207487   
N22      N      0.440830000000     0.625530000000     0.500470000000    -0.207404   
N23      N      0.558470000000     0.624600000000     0.001690000000    -0.207473   
N24      N      0.439050000000     0.625250000000     0.001330000000    -0.207581   
N25      N      0.191000000000     0.374880000000     0.497970000000    -0.207436   
N26      N      0.309490000000     0.374900000000     0.496280000000    -0.207362   
N27      N      0.440550000000     0.374740000000     0.494950000000    -0.207535   
N28      N      0.559970000000     0.374470000000     0.496970000000    -0.207703   
N29      N      0.375110000000     0.559920000000     0.497980000000    -0.207382   
N30      N      0.375040000000     0.440490000000     0.496070000000    -0.207351   
N31      N      0.190200000000     0.375120000000     0.997260000000    -0.207532   
N32      N      0.308650000000     0.375050000000     0.995590000000    -0.207408   
N33      N      0.439700000000     0.373790000000     0.995790000000    -0.207549   
N34      N      0.559130000000     0.374960000000     0.998310000000    -0.207473   
N35      N      0.374880000000     0.439840000000     0.995090000000    -0.207566   
N36      N      0.374000000000     0.559260000000     0.996400000000    -0.207545   
N37      N      0.626090000000     0.808650000000     0.496740000000    -0.207422   
N38      N      0.626580000000     0.690220000000     0.495450000000    -0.207415   
N39      N      0.623280000000     0.809490000000     0.999030000000    -0.207324   
N40      N      0.622770000000     0.691070000000     0.000180000000    -0.207411   
N41      N      0.624780000000     0.873800000000     0.629100000000    -0.207558   
N42      N      0.624870000000     0.874680000000     0.867540000000    -0.207675   
N43      N      0.624480000000     0.875160000000     0.129120000000    -0.20759    
N44      N      0.624910000000     0.874770000000     0.367520000000    -0.207655   
N45      N      0.625240000000     0.190240000000     0.504120000000    -0.207462   
N46      N      0.625580000000     0.308670000000     0.502880000000    -0.207452   
N47      N      0.623970000000     0.059190000000     0.500970000000    -0.207655   
N48      N      0.623810000000     0.939700000000     0.499920000000    -0.207744   
N49      N      0.624490000000     0.309520000000     0.000460000000    -0.207335   
N50      N      0.624810000000     0.191050000000     0.001780000000    -0.207433   
N51      N      0.625090000000     0.125120000000     0.871680000000    -0.207754   
N52      N      0.624930000000     0.124240000000     0.633240000000    -0.207645   
N53      N      0.625320000000     0.125650000000     0.133250000000    -0.207555   
N54      N      0.624560000000     0.125280000000     0.371680000000    -0.207643   
N55      N      0.625870000000     0.940530000000     0.998120000000    -0.207687   
N56      N      0.625890000000     0.059990000000     0.002430000000    -0.207585   
N57      N      0.191300000000     0.625920000000     0.495530000000    -0.207376   
N58      N      0.309750000000     0.625830000000     0.498200000000    -0.20734    
N59      N      0.189600000000     0.623700000000     0.994040000000    -0.207475   
N60      N      0.308000000000     0.623990000000     0.996090000000    -0.207509   
N61      N      0.123980000000     0.624760000000     0.864180000000    -0.207586   
N62      N      0.125480000000     0.625410000000     0.625770000000    -0.207561   
N63      N      0.124590000000     0.624220000000     0.125740000000    -0.20762    
N64      N      0.125670000000     0.624900000000     0.364210000000    -0.207614   
N65      N      0.809710000000     0.623750000000     0.491560000000    -0.207473   
N66      N      0.691320000000     0.623840000000     0.492640000000    -0.207445   
N67      N      0.940770000000     0.624960000000     0.495080000000    -0.207592   
N68      N      0.060220000000     0.624820000000     0.494900000000    -0.207641   
N69      N      0.807970000000     0.626390000000     0.994950000000    -0.207371   
N70      N      0.689520000000     0.626700000000     0.998820000000    -0.207322   
N71      N      0.874190000000     0.623810000000     0.624560000000    -0.207454   
N72      N      0.873540000000     0.624480000000     0.863030000000    -0.207492   
N73      N      0.875830000000     0.625440000000     0.363010000000    -0.207572   
N74      N      0.873850000000     0.626250000000     0.124600000000    -0.207637   
N75      N      0.058520000000     0.624800000000     0.995130000000    -0.20758    
N76      N      0.939060000000     0.624800000000     0.993610000000    -0.207501   
N77      N      0.375400000000     0.309420000000     0.495230000000    -0.207483   
N78      N      0.375360000000     0.190960000000     0.496130000000    -0.207472   
N79      N      0.373250000000     0.190350000000     0.997060000000    -0.207507   
N80      N      0.373140000000     0.308800000000     0.995840000000    -0.207438   
N81      N      0.374530000000     0.124950000000     0.866710000000    -0.207715   
N82      N      0.374520000000     0.125830000000     0.628210000000    -0.207737   
N83      N      0.374370000000     0.124870000000     0.366650000000    -0.207573   
N84      N      0.374320000000     0.124820000000     0.128280000000    -0.207471   
N85      N      0.374670000000     0.809380000000     0.503300000000    -0.20744    
N86      N      0.375350000000     0.690980000000     0.501100000000    -0.207519   
N87      N      0.373700000000     0.940450000000     0.502340000000    -0.20757    
N88      N      0.373570000000     0.059920000000     0.499360000000    -0.207549   
N89      N      0.374100000000     0.808770000000     0.004000000000    -0.207387   
N90      N      0.373190000000     0.690320000000     0.001540000000    -0.207461   
N91      N      0.374110000000     0.874270000000     0.872480000000    -0.207638   
N92      N      0.373910000000     0.874830000000     0.633990000000    -0.20768    
N93      N      0.374650000000     0.874750000000     0.372420000000    -0.207592   
N94      N      0.375220000000     0.874730000000     0.134020000000    -0.207689   
N95      N      0.375510000000     0.059300000000     0.997710000000    -0.207512   
N96      N      0.375400000000     0.939840000000     0.002320000000    -0.20763    
O1       O      0.393700000000     0.873690000000     0.066400000000    -0.55616    
O2       O      0.393100000000     0.874610000000     0.939370000000    -0.557857   
O3       O      0.393770000000     0.905950000000     0.003090000000    -0.557079   
O4       O      0.393080000000     0.842320000000     0.002000000000    -0.557485   
O5       O      0.355740000000     0.842690000000     0.005220000000    -0.557711   
O6       O      0.356380000000     0.906310000000     0.002720000000    -0.557506   
O7       O      0.355720000000     0.873730000000     0.940160000000    -0.55703    
O8       O      0.356350000000     0.875290000000     0.067070000000    -0.559163   
O9       O      0.392720000000     0.874860000000     0.566860000000    -0.558227   
O10      O      0.393100000000     0.875220000000     0.439930000000    -0.558549   
O11      O      0.392640000000     0.906870000000     0.503100000000    -0.557852   
O12      O      0.393130000000     0.843240000000     0.503480000000    -0.557832   
O13      O      0.355750000000     0.842980000000     0.503210000000    -0.557478   
O14      O      0.355250000000     0.906610000000     0.502950000000    -0.557294   
O15      O      0.355720000000     0.874480000000     0.439500000000    -0.556869   
O16      O      0.355330000000     0.875090000000     0.566560000000    -0.55673    
O17      O      0.393170000000     0.124920000000     0.934070000000    -0.557562   
O18      O      0.393030000000     0.125840000000     0.061040000000    -0.557475   
O19      O      0.393690000000     0.093360000000     0.998830000000    -0.555966   
O20      O      0.392500000000     0.156980000000     0.996400000000    -0.558509   
O21      O      0.355140000000     0.156260000000     0.998440000000    -0.556719   
O22      O      0.356330000000     0.092660000000     0.996210000000    -0.558904   
O23      O      0.355690000000     0.123820000000     0.060900000000    -0.557238   
O24      O      0.355780000000     0.124710000000     0.933910000000    -0.557678   
O25      O      0.393080000000     0.124170000000     0.433940000000    -0.55732    
O26      O      0.393170000000     0.125700000000     0.560900000000    -0.558042   
O27      O      0.392650000000     0.093350000000     0.499330000000    -0.559064   
O28      O      0.393600000000     0.156940000000     0.495670000000    -0.556613   
O29      O      0.356240000000     0.157530000000     0.497900000000    -0.558313   
O30      O      0.355280000000     0.093890000000     0.496940000000    -0.555918   
O31      O      0.355780000000     0.125780000000     0.560970000000    -0.557256   
O32      O      0.355740000000     0.126040000000     0.433960000000    -0.557682   
O33      O      0.873070000000     0.607250000000     0.057830000000    -0.559252   
O34      O      0.873060000000     0.606290000000     0.930930000000    -0.556982   
O35      O      0.905100000000     0.606410000000     0.994770000000    -0.555409   
O36      O      0.841420000000     0.607250000000     0.994730000000    -0.55803    
O37      O      0.841990000000     0.644620000000     0.993460000000    -0.556931   
O38      O      0.905580000000     0.643780000000     0.992470000000    -0.558926   
O39      O      0.873770000000     0.643670000000     0.929720000000    -0.557626   
O40      O      0.874230000000     0.644620000000     0.056810000000    -0.555554   
O41      O      0.875630000000     0.605410000000     0.556890000000    -0.555858   
O42      O      0.875650000000     0.606240000000     0.429760000000    -0.556876   
O43      O      0.907240000000     0.606100000000     0.493020000000    -0.559373   
O44      O      0.843670000000     0.605440000000     0.493390000000    -0.557277   
O45      O      0.843200000000     0.642820000000     0.492280000000    -0.557616   
O46      O      0.906860000000     0.643450000000     0.496250000000    -0.555419   
O47      O      0.875680000000     0.643630000000     0.430810000000    -0.558027   
O48      O      0.873940000000     0.642760000000     0.557630000000    -0.558559   
O49      O      0.123970000000     0.605830000000     0.931240000000    -0.556885   
O50      O      0.123370000000     0.605570000000     0.058350000000    -0.556438   
O51      O      0.092070000000     0.605950000000     0.993860000000    -0.5592     
O52      O      0.155650000000     0.605350000000     0.995520000000    -0.557062   
O53      O      0.156080000000     0.642710000000     0.993680000000    -0.55826    
O54      O      0.092420000000     0.643310000000     0.996610000000    -0.555591   
O55      O      0.125090000000     0.642910000000     0.058540000000    -0.558649   
O56      O      0.123850000000     0.643220000000     0.931680000000    -0.558293   
O57      O      0.125720000000     0.606410000000     0.431700000000    -0.55785    
O58      O      0.126560000000     0.606710000000     0.558600000000    -0.558178   
O59      O      0.094110000000     0.606320000000     0.496280000000    -0.555957   
O60      O      0.157780000000     0.606910000000     0.494170000000    -0.557631   
O61      O      0.157340000000     0.644280000000     0.496100000000    -0.556804   
O62      O      0.093760000000     0.643670000000     0.493500000000    -0.559382   
O63      O      0.124800000000     0.644060000000     0.558370000000    -0.556658   
O64      O      0.125870000000     0.643800000000     0.431300000000    -0.557081   
O65      O      0.606680000000     0.124870000000     0.066050000000    -0.559231   
O66      O      0.606510000000     0.125850000000     0.939130000000    -0.557441   
O67      O      0.606890000000     0.093540000000     0.002260000000    -0.557414   
O68      O      0.606360000000     0.157190000000     0.003600000000    -0.557119   
O69      O      0.643720000000     0.157460000000     0.000830000000    -0.557483   
O70      O      0.644280000000     0.093860000000     0.003040000000    -0.557594   
O71      O      0.643880000000     0.124920000000     0.938790000000    -0.557732   
O72      O      0.644040000000     0.126370000000     0.065850000000    -0.555676   
O73      O      0.606090000000     0.123950000000     0.566170000000    -0.557637   
O74      O      0.605870000000     0.125810000000     0.439130000000    -0.555638   
O75      O      0.605610000000     0.093080000000     0.501460000000    -0.557322   
O76      O      0.606260000000     0.156680000000     0.504570000000    -0.557159   
O77      O      0.643620000000     0.156350000000     0.501790000000    -0.557625   
O78      O      0.643000000000     0.092720000000     0.502110000000    -0.557752   
O79      O      0.643220000000     0.124280000000     0.438830000000    -0.559478   
O80      O      0.643470000000     0.124810000000     0.565740000000    -0.557506   
O81      O      0.606080000000     0.875400000000     0.934620000000    -0.558385   
O82      O      0.605840000000     0.875840000000     0.061660000000    -0.556448   
O83      O      0.606620000000     0.907220000000     0.997300000000    -0.55918    
O84      O      0.605260000000     0.843630000000     0.998300000000    -0.556907   
O85      O      0.642640000000     0.842800000000     0.998860000000    -0.55838    
O86      O      0.643990000000     0.906440000000     0.998910000000    -0.556031   
O87      O      0.643200000000     0.874440000000     0.061990000000    -0.558898   
O88      O      0.643450000000     0.874390000000     0.935030000000    -0.557004   
O89      O      0.606240000000     0.873840000000     0.434710000000    -0.558555   
O90      O      0.606130000000     0.873430000000     0.561690000000    -0.55656    
O91      O      0.605600000000     0.905660000000     0.498240000000    -0.555741   
O92      O      0.606800000000     0.842000000000     0.497470000000    -0.557774   
O93      O      0.644180000000     0.842750000000     0.497820000000    -0.556729   
O94      O      0.642970000000     0.906330000000     0.499700000000    -0.559591   
O95      O      0.643510000000     0.874330000000     0.561930000000    -0.55848    
O96      O      0.643600000000     0.875170000000     0.434920000000    -0.556809   
O97      O      0.373500000000     0.406080000000     0.958030000000    -0.557329   
O98      O      0.374790000000     0.342470000000     0.958450000000    -0.557084   
O99      O      0.342360000000     0.373630000000     0.958260000000    -0.556674   
O100     O      0.406020000000     0.374970000000     0.958320000000    -0.556409   
O101     O      0.405940000000     0.372920000000     0.032820000000    -0.558252   
O102     O      0.342410000000     0.375800000000     0.032740000000    -0.558032   
O103     O      0.372720000000     0.342590000000     0.032940000000    -0.557239   
O104     O      0.375640000000     0.406160000000     0.032520000000    -0.557597   
O105     O      0.373850000000     0.406840000000     0.458510000000    -0.556061   
O106     O      0.376020000000     0.343200000000     0.458050000000    -0.556113   
O107     O      0.343120000000     0.373970000000     0.458620000000    -0.556377   
O108     O      0.406760000000     0.376100000000     0.457920000000    -0.556103   
O109     O      0.406900000000     0.373830000000     0.532400000000    -0.55853    
O110     O      0.343330000000     0.375880000000     0.533120000000    -0.557892   
O111     O      0.374160000000     0.343100000000     0.532560000000    -0.558391   
O112     O      0.376160000000     0.406670000000     0.532980000000    -0.557873   
O113     O      0.373060000000     0.592590000000     0.034830000000    -0.558753   
O114     O      0.372890000000     0.656190000000     0.037490000000    -0.556704   
O115     O      0.341310000000     0.624130000000     0.034780000000    -0.558      
O116     O      0.404960000000     0.624290000000     0.037460000000    -0.556175   
O117     O      0.405710000000     0.625780000000     0.962920000000    -0.559297   
O118     O      0.342140000000     0.624860000000     0.960200000000    -0.557268   
O119     O      0.373640000000     0.657000000000     0.962910000000    -0.558147   
O120     O      0.374550000000     0.593360000000     0.960280000000    -0.55622    
O121     O      0.374030000000     0.593430000000     0.535970000000    -0.557119   
O122     O      0.376180000000     0.657020000000     0.537550000000    -0.556928   
O123     O      0.343310000000     0.626310000000     0.536190000000    -0.556343   
O124     O      0.406960000000     0.624140000000     0.537300000000    -0.555902   
O125     O      0.407240000000     0.626660000000     0.462860000000    -0.558326   
O126     O      0.343670000000     0.624790000000     0.461650000000    -0.557771   
O127     O      0.374540000000     0.657480000000     0.463030000000    -0.557774   
O128     O      0.376410000000     0.593870000000     0.461520000000    -0.55716    
O129     O      0.593100000000     0.374000000000     0.961980000000    -0.557214   
O130     O      0.656700000000     0.375960000000     0.963650000000    -0.556993   
O131     O      0.625850000000     0.343200000000     0.963020000000    -0.556845   
O132     O      0.623910000000     0.406830000000     0.962680000000    -0.556572   
O133     O      0.625540000000     0.406890000000     0.037220000000    -0.557665   
O134     O      0.623340000000     0.343320000000     0.037460000000    -0.557721   
O135     O      0.656220000000     0.374050000000     0.038150000000    -0.557115   
O136     O      0.592610000000     0.376200000000     0.036460000000    -0.55693    
O137     O      0.594160000000     0.373650000000     0.461240000000    -0.556234   
O138     O      0.657780000000     0.373640000000     0.464640000000    -0.55839    
O139     O      0.626100000000     0.341990000000     0.464290000000    -0.558333   
O140     O      0.626180000000     0.405620000000     0.461610000000    -0.55643    
O141     O      0.624750000000     0.406400000000     0.536160000000    -0.559303   
O142     O      0.624850000000     0.342800000000     0.538840000000    -0.557196   
O143     O      0.656770000000     0.374790000000     0.539190000000    -0.55723    
O144     O      0.593180000000     0.374770000000     0.535800000000    -0.559403   
O145     O      0.625390000000     0.593750000000     0.963080000000    -0.557462   
O146     O      0.622200000000     0.657300000000     0.963020000000    -0.557463   
O147     O      0.655560000000     0.627110000000     0.962350000000    -0.557586   
O148     O      0.592020000000     0.623920000000     0.963790000000    -0.557487   
O149     O      0.592360000000     0.626100000000     0.038280000000    -0.556834   
O150     O      0.656000000000     0.625120000000     0.036840000000    -0.556893   
O151     O      0.624630000000     0.657390000000     0.037470000000    -0.557082   
O152     O      0.623650000000     0.593760000000     0.037610000000    -0.55708    
O153     O      0.625210000000     0.592810000000     0.458470000000    -0.557371   
O154     O      0.625170000000     0.656450000000     0.458310000000    -0.557306   
O155     O      0.657150000000     0.624730000000     0.456840000000    -0.556517   
O156     O      0.593540000000     0.624420000000     0.459960000000    -0.5586     
O157     O      0.594450000000     0.625470000000     0.534530000000    -0.556332   
O158     O      0.658060000000     0.623960000000     0.531420000000    -0.558525   
O159     O      0.627070000000     0.656510000000     0.532820000000    -0.557731   
O160     O      0.625820000000     0.592900000000     0.533090000000    -0.557494   
O161     O      0.123740000000     0.393930000000     0.061660000000    -0.556855   
O162     O      0.125550000000     0.393270000000     0.934710000000    -0.557552   
O163     O      0.092820000000     0.393500000000     0.996400000000    -0.557328   
O164     O      0.156430000000     0.393690000000     0.999870000000    -0.557372   
O165     O      0.156510000000     0.356360000000     0.996130000000    -0.557108   
O166     O      0.092940000000     0.356210000000     0.001720000000    -0.557043   
O167     O      0.123350000000     0.355960000000     0.935400000000    -0.556626   
O168     O      0.126140000000     0.356620000000     0.062320000000    -0.556979   
O169     O      0.124920000000     0.393190000000     0.562490000000    -0.55859    
O170     O      0.125960000000     0.394020000000     0.435500000000    -0.556073   
O171     O      0.093640000000     0.393640000000     0.498640000000    -0.557471   
O172     O      0.157280000000     0.393570000000     0.500050000000    -0.557223   
O173     O      0.157240000000     0.356230000000     0.496630000000    -0.557441   
O174     O      0.093610000000     0.356260000000     0.498770000000    -0.557328   
O175     O      0.124740000000     0.356650000000     0.434550000000    -0.55818    
O176     O      0.126080000000     0.355830000000     0.561540000000    -0.556106   
O177     O      0.874040000000     0.393530000000     0.941310000000    -0.557037   
O178     O      0.874410000000     0.393320000000     0.068340000000    -0.557553   
O179     O      0.906030000000     0.393390000000     0.004970000000    -0.55733    
O180     O      0.842400000000     0.393470000000     0.004760000000    -0.557422   
O181     O      0.842350000000     0.356090000000     0.004470000000    -0.557841   
O182     O      0.905980000000     0.356000000000     0.004550000000    -0.557369   
O183     O      0.873900000000     0.355940000000     0.068100000000    -0.557471   
O184     O      0.874460000000     0.356140000000     0.941110000000    -0.557887   
O185     O      0.873410000000     0.393170000000     0.441190000000    -0.55705    
O186     O      0.876340000000     0.393370000000     0.568080000000    -0.55679    
O187     O      0.906670000000     0.393390000000     0.501660000000    -0.556851   
O188     O      0.843090000000     0.393150000000     0.507500000000    -0.556693   
O189     O      0.843230000000     0.355830000000     0.503230000000    -0.557571   
O190     O      0.906830000000     0.356080000000     0.506570000000    -0.55722    
O191     O      0.874140000000     0.356050000000     0.568320000000    -0.557442   
O192     O      0.875890000000     0.355870000000     0.441350000000    -0.556992   
V1       V      0.394900000000     0.874120000000     0.002750000000     1.39408    
V2       V      0.354560000000     0.874510000000     0.003760000000     1.39728    
V3       V      0.394370000000     0.875070000000     0.503380000000     1.39764    
V4       V      0.354030000000     0.874780000000     0.503030000000     1.3938     
V5       V      0.394580000000     0.125270000000     0.997580000000     1.39515    
V6       V      0.354250000000     0.124370000000     0.997380000000     1.39629    
V7       V      0.394610000000     0.125050000000     0.497440000000     1.39644    
V8       V      0.354270000000     0.125800000000     0.497450000000     1.3948     
V9       V      0.873170000000     0.605320000000     0.994540000000     1.3953     
V10      V      0.873870000000     0.645650000000     0.993110000000     1.39514    
V11      V      0.875530000000     0.604320000000     0.493250000000     1.39506    
V12      V      0.874950000000     0.644650000000     0.494290000000     1.39574    
V13      V      0.123780000000     0.604190000000     0.994760000000     1.39472    
V14      V      0.124330000000     0.644520000000     0.995140000000     1.39649    
V15      V      0.126020000000     0.605110000000     0.495180000000     1.39531    
V16      V      0.125470000000     0.645440000000     0.494810000000     1.39547    
V17      V      0.605130000000     0.125350000000     0.002710000000     1.39652    
V18      V      0.645470000000     0.125670000000     0.002200000000     1.39434    
V19      V      0.604470000000     0.124890000000     0.502780000000     1.39323    
V20      V      0.644810000000     0.124520000000     0.502170000000     1.39832    
V21      V      0.604470000000     0.875520000000     0.998020000000     1.39582    
V22      V      0.644800000000     0.874520000000     0.998640000000     1.39574    
V23      V      0.604710000000     0.873740000000     0.498080000000     1.39376    
V24      V      0.645040000000     0.874640000000     0.498530000000     1.39737    
V25      V      0.374180000000     0.374280000000     0.955270000000     1.39286    
V26      V      0.374180000000     0.374380000000     0.035730000000     1.39694    
V27      V      0.374930000000     0.375030000000     0.455280000000     1.39003    
V28      V      0.375140000000     0.374870000000     0.535740000000     1.39874    
V29      V      0.373050000000     0.624300000000     0.039100000000     1.39485    
V30      V      0.374010000000     0.625260000000     0.958630000000     1.39637    
V31      V      0.375110000000     0.625200000000     0.539740000000     1.39193    
V32      V      0.375480000000     0.625710000000     0.459290000000     1.39674    
V33      V      0.624910000000     0.375000000000     0.959850000000     1.39329    
V34      V      0.624400000000     0.375110000000     0.040300000000     1.39545    
V35      V      0.626070000000     0.373720000000     0.459980000000     1.39427    
V36      V      0.624880000000     0.374690000000     0.540450000000     1.39796    
V37      V      0.623780000000     0.625520000000     0.960080000000     1.39574    
V38      V      0.624190000000     0.625580000000     0.040540000000     1.39364    
V39      V      0.625250000000     0.624620000000     0.455440000000     1.39525    
V40      V      0.626350000000     0.624720000000     0.535920000000     1.39541    
V41      V      0.124620000000     0.395100000000     0.998130000000     1.39483    
V42      V      0.124730000000     0.354790000000     0.998920000000     1.39411    
V43      V      0.125460000000     0.395090000000     0.499150000000     1.39481    
V44      V      0.125430000000     0.354760000000     0.497890000000     1.3951     
V45      V      0.874220000000     0.394900000000     0.004850000000     1.395      
V46      V      0.874160000000     0.354560000000     0.004570000000     1.39632    
V47      V      0.874880000000     0.394770000000     0.504610000000     1.39339    
V48      V      0.875030000000     0.354460000000     0.504870000000     1.39554    


