data_structure

_audit_creation_method RASPA-1.0
_audit_creation_date 2023-6-5
_audit_author_name 'Poobodin Mano'

_cell_length_a    48.9351
_cell_length_b    48.914
_cell_length_c    29.3086
_cell_angle_alpha 89.9796
_cell_angle_beta  90.0202
_cell_angle_gamma 119.981
_cell_volume      60766.3

_symmetry_cell_setting          triclinic
_symmetry_space_group_name_Hall 'P 1'
_symmetry_space_group_name_H-M  'P 1'
_symmetry_Int_Tables_number     1

_symmetry_equiv_pos_as_xyz 'x,y,z'

loop_
_atom_site_label
_atom_site_type_symbol
_atom_site_fract_x
_atom_site_fract_y
_atom_site_fract_z
_atom_site_charge
C1       C      0.850430000000     0.665810000000     0.560460000000     0.489243   
C2       C      0.820080000000     0.657810000000     0.727840000000     0.489922   
C3       C      0.777830000000     0.632630000000     0.619770000000     0.488837   
C4       C      0.892940000000     0.690850000000     0.667970000000     0.479208   
C5       C      0.183770000000     0.846360000000     0.723360000000     0.490498   
C6       C      0.155280000000     0.822370000000     0.890850000000     0.480567   
C7       C      0.111530000000     0.804320000000     0.784550000000     0.49094    
C8       C      0.227260000000     0.864370000000     0.829850000000     0.491686   
C9       C      0.487530000000     0.996830000000     0.057570000000     0.479111   
C10      C      0.517950000000     0.005070000000     0.890350000000     0.4908     
C11      C      0.560360000000     0.029270000000     0.997810000000     0.489985   
C12      C      0.445190000000     0.972510000000     0.949980000000     0.478138   
C13      C      0.154630000000     0.334970000000     0.390950000000     0.489156   
C14      C      0.184430000000     0.339830000000     0.223800000000     0.488469   
C15      C      0.226990000000     0.365110000000     0.331030000000     0.479121   
C16      C      0.111740000000     0.309450000000     0.283870000000     0.479013   
C17      C      0.819110000000     0.159570000000     0.229080000000     0.489386   
C18      C      0.850750000000     0.181500000000     0.062040000000     0.490221   
C19      C      0.892260000000     0.200650000000     0.170600000000     0.488581   
C20      C      0.777540000000     0.140620000000     0.120560000000     0.479697   
C21      C      0.487170000000     0.487900000000     0.558210000000     0.489032   
C22      C      0.518440000000     0.511200000000     0.391300000000     0.490054   
C23      C      0.560110000000     0.527040000000     0.499170000000     0.478663   
C24      C      0.445260000000     0.472280000000     0.449950000000     0.491902   
C25      C      0.159570000000     0.338970000000     0.723890000000     0.480492   
C26      C      0.183450000000     0.332740000000     0.890930000000     0.479193   
C27      C      0.199920000000     0.306670000000     0.783530000000     0.479613   
C28      C      0.143090000000     0.365090000000     0.831060000000     0.491143   
C29      C      0.335620000000     0.152610000000     0.722130000000     0.490068   
C30      C      0.332840000000     0.179320000000     0.555150000000     0.488867   
C31      C      0.305550000000     0.194650000000     0.662530000000     0.490877   
C32      C      0.363050000000     0.136890000000     0.615110000000     0.480706   
C33      C      0.001270000000     0.513780000000     0.891780000000     0.480273   
C34      C      0.008220000000     0.489940000000     0.058720000000     0.489384   
C35      C      0.033320000000     0.473000000000     0.951090000000     0.47956    
C36      C      0.975890000000     0.530570000000     0.999570000000     0.479283   
C37      C      0.666070000000     0.845350000000     0.225500000000     0.47932    
C38      C      0.672880000000     0.821620000000     0.392570000000     0.488243   
C39      C      0.696990000000     0.803350000000     0.284910000000     0.47835    
C40      C      0.641880000000     0.863300000000     0.333170000000     0.47982    
C41      C      0.845570000000     0.660210000000     0.227590000000     0.479957   
C42      C      0.820420000000     0.665420000000     0.060800000000     0.480111   
C43      C      0.803030000000     0.690620000000     0.168540000000     0.489791   
C44      C      0.862510000000     0.635070000000     0.119630000000     0.491893   
C45      C      0.516030000000     0.998940000000     0.557450000000     0.479125   
C46      C      0.491550000000     0.004200000000     0.390360000000     0.48983    
C47      C      0.474830000000     0.030340000000     0.497390000000     0.490074   
C48      C      0.532510000000     0.972720000000     0.449820000000     0.488581   
C49      C      0.330330000000     0.152340000000     0.055240000000     0.478674   
C50      C      0.336980000000     0.182810000000     0.222190000000     0.480217   
C51      C      0.362660000000     0.225240000000     0.114690000000     0.478993   
C52      C      0.304480000000     0.110130000000     0.163130000000     0.491168   
C53      C      0.491140000000     0.487600000000     0.891210000000     0.480872   
C54      C      0.515730000000     0.515950000000     0.058570000000     0.479487   
C55      C      0.532390000000     0.559520000000     0.952050000000     0.479336   
C56      C      0.474330000000     0.443810000000     0.997500000000     0.490539   
C57      C      0.155800000000     0.819080000000     0.223730000000     0.490576   
C58      C      0.179690000000     0.849840000000     0.390600000000     0.47972    
C59      C      0.196650000000     0.892010000000     0.282930000000     0.479837   
C60      C      0.138860000000     0.776890000000     0.331220000000     0.491969   
C61      C      0.007570000000     0.516270000000     0.558720000000     0.488952   
C62      C      0.001590000000     0.486570000000     0.391460000000     0.48097    
C63      C      0.976080000000     0.443610000000     0.498410000000     0.490403   
C64      C      0.032860000000     0.559040000000     0.451640000000     0.479397   
C65      C      0.847940000000     0.183890000000     0.729210000000     0.478206   
C66      C      0.821620000000     0.155190000000     0.562180000000     0.479689   
C67      C      0.803350000000     0.111790000000     0.669270000000     0.488147   
C68      C      0.866140000000     0.227090000000     0.622400000000     0.479125   
C69      C      0.668210000000     0.850020000000     0.892350000000     0.487494   
C70      C      0.664150000000     0.820200000000     0.725430000000     0.479312   
C71      C      0.638300000000     0.777830000000     0.833420000000     0.487532   
C72      C      0.694050000000     0.892880000000     0.784920000000     0.479789   
C73      C      0.757410000000     0.068510000000     0.704020000000     0.244648   
C74      C      0.800560000000     0.062430000000     0.680890000000     0.0847414  
C75      C      0.741810000000     0.037570000000     0.720880000000    -0.16042    
C76      C      0.706500000000     0.967060000000     0.735390000000    -0.0827885  
C77      C      0.785340000000     0.031420000000     0.696900000000    -0.108226   
C78      C      0.739490000000     0.985730000000     0.736180000000     0.0228014  
C79      C      0.755710000000     0.018590000000     0.717720000000     0.0669928  
C80      C      0.691720000000     0.936380000000     0.752760000000     0.0738605  
C81      C      0.741260000000     0.941620000000     0.771140000000     0.0728914  
C82      C      0.756790000000     0.972620000000     0.754850000000    -0.083606   
C83      C      0.928380000000     0.394020000000     0.511020000000     0.24504    
C84      C      0.978050000000     0.400730000000     0.533070000000     0.0844643  
C85      C      0.913260000000     0.363300000000     0.528560000000    -0.161087   
C86      C      0.884340000000     0.306850000000     0.590500000000    -0.0835495  
C87      C      0.963470000000     0.370450000000     0.551870000000    -0.107241   
C88      C      0.914360000000     0.319130000000     0.570910000000     0.0234221  
C89      C      0.930610000000     0.351310000000     0.550180000000     0.066282   
C90      C      0.868770000000     0.276230000000     0.608030000000     0.0731829  
C91      C      0.912410000000     0.269850000000     0.589760000000     0.0725503  
C92      C      0.928440000000     0.300210000000     0.571120000000    -0.0832855  
C93      C      0.091200000000     0.727830000000     0.346130000000     0.245307   
C94      C      0.141210000000     0.733760000000     0.363760000000     0.0854964  
C95      C      0.076290000000     0.696840000000     0.362790000000    -0.160348   
C96      C      0.047200000000     0.637410000000     0.418690000000    -0.0826879  
C97      C      0.126890000000     0.703460000000     0.382380000000    -0.107623   
C98      C      0.078140000000     0.651610000000     0.401600000000     0.023612   
C99      C      0.093950000000     0.684320000000     0.382100000000     0.0663156  
C100     C      0.032410000000     0.606480000000     0.435180000000     0.0732028  
C101     C      0.078610000000     0.603610000000     0.421620000000     0.073066   
C102     C      0.093710000000     0.634050000000     0.403320000000    -0.0830888  
C103     C      0.593670000000     0.734200000000     0.869070000000     0.244395   
C104     C      0.638360000000     0.730130000000     0.848220000000     0.0844601  
C105     C      0.579070000000     0.703610000000     0.886910000000    -0.160945   
C106     C      0.544820000000     0.634190000000     0.905050000000    -0.0837728  
C107     C      0.623870000000     0.699140000000     0.864480000000    -0.107326   
C108     C      0.577880000000     0.652300000000     0.902770000000     0.0233652  
C109     C      0.593830000000     0.685350000000     0.884510000000     0.0655379  
C110     C      0.530180000000     0.603710000000     0.922980000000     0.0731669  
C111     C      0.579770000000     0.607290000000     0.934430000000     0.0726482  
C112     C      0.595280000000     0.638360000000     0.918270000000    -0.0834169  
C113     C      0.258900000000     0.066390000000     0.197180000000     0.245157   
C114     C      0.303610000000     0.061960000000     0.177810000000     0.0851081  
C115     C      0.244080000000     0.035910000000     0.215520000000    -0.161244   
C116     C      0.209390000000     0.966540000000     0.234810000000    -0.0824545  
C117     C      0.288760000000     0.030970000000     0.194110000000    -0.107559   
C118     C      0.242470000000     0.984510000000     0.232520000000     0.0225595  
C119     C      0.258650000000     0.017460000000     0.213830000000     0.0670726  
C120     C      0.194610000000     0.936140000000     0.253090000000     0.0735738  
C121     C      0.244090000000     0.939560000000     0.264940000000     0.073014   
C122     C      0.259730000000     0.970530000000     0.248460000000    -0.0828273  
C123     C      0.472280000000     0.393970000000     0.009130000000     0.244675   
C124     C      0.429440000000     0.400760000000     0.031510000000     0.0849792  
C125     C      0.456300000000     0.362900000000     0.025500000000    -0.160514   
C126     C      0.426650000000     0.304190000000     0.083790000000    -0.0829551  
C127     C      0.413410000000     0.370190000000     0.049170000000    -0.107789   
C128     C      0.409900000000     0.317920000000     0.065220000000     0.0234568  
C129     C      0.426730000000     0.350710000000     0.046440000000     0.0663359  
C130     C      0.410530000000     0.273250000000     0.100330000000     0.0726325  
C131     C      0.361470000000     0.269330000000     0.082480000000     0.0729798  
C132     C      0.376840000000     0.299940000000     0.064810000000    -0.0834074  
C133     C      0.699050000000     0.836010000000     0.465540000000     0.244327   
C134     C      0.646840000000     0.792690000000     0.459280000000     0.0840466  
C135     C      0.697490000000     0.832970000000     0.513090000000    -0.161264   
C136     C      0.639980000000     0.806470000000     0.605410000000    -0.0835161  
C137     C      0.644610000000     0.789280000000     0.506660000000    -0.1091     
C138     C      0.666930000000     0.809010000000     0.584660000000     0.0231556  
C139     C      0.669860000000     0.809980000000     0.534190000000     0.066348   
C140     C      0.639000000000     0.809240000000     0.652730000000     0.0729838  
C141     C      0.689950000000     0.815160000000     0.659720000000     0.0726409  
C142     C      0.691820000000     0.812750000000     0.612480000000    -0.0842829  
C143     C      0.642230000000     0.853340000000     0.960430000000     0.243038   
C144     C      0.694000000000     0.860770000000     0.964120000000     0.0842858  
C145     C      0.641590000000     0.855340000000     0.008090000000    -0.160959   
C146     C      0.639100000000     0.834050000000     0.106760000000    -0.083834   
C147     C      0.693990000000     0.862970000000     0.011550000000    -0.108812   
C148     C      0.665680000000     0.858020000000     0.084720000000     0.0231351  
C149     C      0.667310000000     0.859480000000     0.034160000000     0.0662379  
C150     C      0.639250000000     0.830680000000     0.154070000000     0.072684   
C151     C      0.690670000000     0.875270000000     0.158570000000     0.0725383  
C152     C      0.691430000000     0.879110000000     0.111280000000    -0.0841785  
C153     C      0.757610000000     0.689170000000     0.203100000000     0.244058   
C154     C      0.801710000000     0.737960000000     0.180760000000     0.0838867  
C155     C      0.742840000000     0.705120000000     0.220660000000    -0.160802   
C156     C      0.708610000000     0.741140000000     0.235410000000    -0.083565   
C157     C      0.787110000000     0.754350000000     0.196940000000    -0.108013   
C158     C      0.741580000000     0.755160000000     0.235950000000     0.022986   
C159     C      0.757390000000     0.738050000000     0.217650000000     0.0658061  
C160     C      0.694140000000     0.757300000000     0.252870000000     0.0725677  
C161     C      0.743950000000     0.801430000000     0.270520000000     0.0719434  
C162     C      0.759190000000     0.785660000000     0.254230000000    -0.0836449  
C163     C      0.530880000000     0.927490000000     0.415090000000     0.245914   
C164     C      0.579900000000     0.971950000000     0.435590000000     0.0861017  
C165     C      0.546540000000     0.912400000000     0.397810000000    -0.160855   
C166     C      0.580940000000     0.877240000000     0.381220000000    -0.0835043  
C167     C      0.596080000000     0.957000000000     0.419830000000    -0.106663   
C168     C      0.596200000000     0.910340000000     0.382580000000     0.0240938  
C169     C      0.579500000000     0.926810000000     0.400310000000     0.0665697  
C170     C      0.596280000000     0.862080000000     0.363430000000     0.0740545  
C171     C      0.642500000000     0.911250000000     0.350510000000     0.0740115  
C172     C      0.627430000000     0.927270000000     0.366560000000    -0.0828412  
C173     C      0.034130000000     0.529240000000     0.631450000000     0.244563   
C174     C      0.981430000000     0.518990000000     0.625400000000     0.0836069  
C175     C      0.032820000000     0.531390000000     0.678940000000    -0.161415   
C176     C      0.976050000000     0.501010000000     0.772220000000    -0.0843372  
C177     C      0.979460000000     0.520840000000     0.672700000000    -0.109882   
C178     C      0.002570000000     0.525380000000     0.750620000000     0.0237743  
C179     C      0.005120000000     0.526470000000     0.700110000000     0.0670847  
C180     C      0.975500000000     0.498090000000     0.819660000000     0.0724788  
C181     C      0.026020000000     0.543900000000     0.825080000000     0.0730362  
C182     C      0.027440000000     0.547360000000     0.777690000000    -0.0841232  
C183     C      0.034750000000     0.503880000000     0.131410000000     0.245324   
C184     C      0.982510000000     0.460590000000     0.125270000000     0.0845313  
C185     C      0.033490000000     0.500430000000     0.178890000000    -0.161446   
C186     C      0.028000000000     0.478700000000     0.277780000000    -0.0839533  
C187     C      0.980540000000     0.456830000000     0.172590000000    -0.109515   
C188     C      0.003310000000     0.475980000000     0.250450000000     0.0243266  
C189     C      0.005980000000     0.477280000000     0.200000000000     0.0677023  
C190     C      0.026430000000     0.480840000000     0.325130000000     0.0738129  
C191     C      0.976240000000     0.476830000000     0.319080000000     0.0739703  
C192     C      0.976870000000     0.474250000000     0.271700000000    -0.0838006  
C193     C      0.861860000000     0.590130000000     0.085380000000     0.245431   
C194     C      0.910460000000     0.635610000000     0.104490000000     0.085239   
C195     C      0.878080000000     0.575940000000     0.066950000000    -0.161259   
C196     C      0.913870000000     0.542440000000     0.048520000000    -0.0832221  
C197     C      0.927190000000     0.621400000000     0.088110000000    -0.107151   
C198     C      0.928420000000     0.575490000000     0.050170000000     0.0237795  
C199     C      0.911120000000     0.591180000000     0.068600000000     0.0664677  
C200     C      0.929770000000     0.527990000000     0.030250000000     0.0738867  
C201     C      0.975200000000     0.577800000000     0.017390000000     0.0737045  
C202     C      0.959520000000     0.593110000000     0.033870000000    -0.0826119  
C203     C      0.309000000000     0.122730000000     0.789540000000     0.246892   
C204     C      0.360600000000     0.167240000000     0.794510000000     0.0860316  
C205     C      0.307840000000     0.119720000000     0.837160000000    -0.161305   
C206     C      0.304450000000     0.138110000000     0.935960000000    -0.0837218  
C207     C      0.360090000000     0.164630000000     0.841920000000    -0.108624   
C208     C      0.331070000000     0.140490000000     0.914350000000     0.0231735  
C209     C      0.333230000000     0.141160000000     0.863840000000     0.0673679  
C210     C      0.304190000000     0.141180000000     0.983310000000     0.072602   
C211     C      0.355180000000     0.147010000000     0.988640000000     0.0723527  
C212     C      0.356380000000     0.144420000000     0.941320000000    -0.0841463  
C213     C      0.358590000000     0.210130000000     0.488050000000     0.244067   
C214     C      0.307190000000     0.165310000000     0.483110000000     0.0842968  
C215     C      0.359550000000     0.213400000000     0.440510000000    -0.161385   
C216     C      0.362600000000     0.195570000000     0.341510000000    -0.0837334  
C217     C      0.307350000000     0.168400000000     0.435760000000    -0.108709   
C218     C      0.336080000000     0.193190000000     0.363350000000     0.0238048  
C219     C      0.334060000000     0.192110000000     0.413860000000     0.0666106  
C220     C      0.362900000000     0.193020000000     0.294110000000     0.0741853  
C221     C      0.312160000000     0.187820000000     0.289140000000     0.074483   
C222     C      0.310870000000     0.189800000000     0.336590000000    -0.0840977  
C223     C      0.472950000000     0.078120000000     0.510090000000     0.244301   
C224     C      0.429790000000     0.028310000000     0.531130000000     0.0850606  
C225     C      0.456930000000     0.093120000000     0.526650000000    -0.160574   
C226     C      0.426970000000     0.121560000000     0.585480000000    -0.0827091  
C227     C      0.413690000000     0.042740000000     0.548910000000    -0.107942   
C228     C      0.410270000000     0.091410000000     0.565860000000     0.0240083  
C229     C      0.427160000000     0.075580000000     0.546940000000     0.0666152  
C230     C      0.410830000000     0.136330000000     0.602020000000     0.0745964  
C231     C      0.361840000000     0.091810000000     0.582120000000     0.0744613  
C232     C      0.377250000000     0.076600000000     0.564470000000    -0.0827733  
C233     C      0.141660000000     0.413090000000     0.843690000000     0.244778   
C234     C      0.098550000000     0.363520000000     0.865760000000     0.0854008  
C235     C      0.125970000000     0.428330000000     0.860570000000    -0.160595   
C236     C      0.096860000000     0.457530000000     0.919590000000    -0.0830557  
C237     C      0.082830000000     0.378210000000     0.883950000000    -0.107988   
C238     C      0.079870000000     0.427140000000     0.900800000000     0.0236952  
C239     C      0.096430000000     0.411050000000     0.881600000000     0.0666863  
C240     C      0.080960000000     0.472480000000     0.936430000000     0.072851   
C241     C      0.031700000000     0.427650000000     0.918520000000     0.0734892  
C242     C      0.046830000000     0.412290000000     0.900520000000    -0.083341   
C243     C      0.260010000000     0.193220000000     0.695970000000     0.244408   
C244     C      0.305360000000     0.242190000000     0.677870000000     0.084929   
C245     C      0.245490000000     0.209080000000     0.714570000000    -0.161494   
C246     C      0.211720000000     0.244560000000     0.734500000000    -0.0835251  
C247     C      0.290840000000     0.258570000000     0.694410000000    -0.107432   
C248     C      0.244770000000     0.259190000000     0.732690000000     0.0233572  
C249     C      0.260570000000     0.242150000000     0.713680000000     0.0659382  
C250     C      0.197260000000     0.260420000000     0.752980000000     0.0730342  
C251     C      0.247050000000     0.305820000000     0.766020000000     0.0729984  
C252     C      0.262360000000     0.290200000000     0.749360000000    -0.0832015  
C253     C      0.481310000000     0.457760000000     0.626360000000     0.24492    
C254     C      0.477470000000     0.504270000000     0.629780000000     0.0845126  
C255     C      0.479060000000     0.455160000000     0.673920000000    -0.162407   
C256     C      0.502470000000     0.474510000000     0.771460000000    -0.0836835  
C257     C      0.475010000000     0.502070000000     0.677260000000    -0.108972   
C258     C      0.478480000000     0.477520000000     0.750270000000     0.0232227  
C259     C      0.476710000000     0.477820000000     0.699850000000     0.0671273  
C260     C      0.505870000000     0.477140000000     0.818770000000     0.0742574  
C261     C      0.461230000000     0.483830000000     0.824880000000     0.073038   
C262     C      0.457490000000     0.481860000000     0.777500000000    -0.0842504  
C263     C      0.530430000000     0.496610000000     0.318640000000     0.245196   
C264     C      0.523180000000     0.541000000000     0.324790000000     0.0860872  
C265     C      0.532770000000     0.500120000000     0.271150000000    -0.161014   
C266     C      0.504100000000     0.528470000000     0.178510000000    -0.0840916  
C267     C      0.525200000000     0.544860000000     0.277510000000    -0.108578   
C268     C      0.528060000000     0.525360000000     0.199640000000     0.0234385  
C269     C      0.529350000000     0.523880000000     0.250080000000     0.0669508  
C270     C      0.500910000000     0.526270000000     0.131120000000     0.0728922  
C271     C      0.545690000000     0.519860000000     0.124850000000     0.0724894  
C272     C      0.549350000000     0.521610000000     0.172210000000    -0.084435   
C273     C      0.862390000000     0.166000000000     0.989710000000     0.244553   
C274     C      0.856220000000     0.211080000000     0.994960000000     0.0845928  
C275     C      0.865460000000     0.169580000000     0.942260000000    -0.161313   
C276     C      0.881880000000     0.189650000000     0.842750000000    -0.0842139  
C277     C      0.858680000000     0.214830000000     0.947650000000    -0.108874   
C278     C      0.861320000000     0.194630000000     0.870120000000     0.022727   
C279     C      0.862640000000     0.193530000000     0.920650000000     0.0663315  
C280     C      0.877930000000     0.187420000000     0.795390000000     0.071805   
C281     C      0.834320000000     0.195740000000     0.801560000000     0.0723034  
C282     C      0.837810000000     0.198420000000     0.848860000000    -0.0846255  
C283     C      0.807570000000     0.174950000000     0.301640000000     0.244116   
C284     C      0.814030000000     0.130070000000     0.296070000000     0.0844864  
C285     C      0.804610000000     0.171290000000     0.349120000000    -0.160722   
C286     C      0.832280000000     0.141950000000     0.442170000000    -0.0844604  
C287     C      0.811650000000     0.126220000000     0.343330000000    -0.108992   
C288     C      0.808870000000     0.145990000000     0.421060000000     0.0233577  
C289     C      0.807600000000     0.147360000000     0.370540000000     0.0663169  
C290     C      0.835530000000     0.144060000000     0.489540000000     0.0731955  
C291     C      0.791930000000     0.152360000000     0.496000000000     0.0733673  
C292     C      0.788200000000     0.150690000000     0.448590000000    -0.0837765  
C293     C      0.149870000000     0.360310000000     0.458720000000     0.244103   
C294     C      0.144380000000     0.309300000000     0.462860000000     0.0842882  
C295     C      0.148380000000     0.361280000000     0.506360000000    -0.161875   
C296     C      0.171310000000     0.364490000000     0.604500000000    -0.0837338  
C297     C      0.142220000000     0.309440000000     0.510310000000    -0.109254   
C298     C      0.146820000000     0.338000000000     0.583070000000     0.0233725  
C299     C      0.145110000000     0.335980000000     0.532610000000     0.0665179  
C300     C      0.174750000000     0.364790000000     0.651810000000     0.0742053  
C301     C      0.129150000000     0.314100000000     0.657430000000     0.0729519  
C302     C      0.125320000000     0.312820000000     0.610090000000    -0.0848684  
C303     C      0.198040000000     0.366260000000     0.150970000000     0.244314   
C304     C      0.187420000000     0.313440000000     0.157570000000     0.0838916  
C305     C      0.200530000000     0.364870000000     0.103560000000    -0.161376   
C306     C      0.216800000000     0.359210000000     0.005080000000    -0.0841466  
C307     C      0.189630000000     0.311400000000     0.110340000000    -0.109082   
C308     C      0.194740000000     0.334400000000     0.032180000000     0.0228901  
C309     C      0.195610000000     0.337070000000     0.082680000000     0.0663327  
C310     C      0.213470000000     0.357670000000     0.957660000000     0.071998   
C311     C      0.167650000000     0.307160000000     0.963130000000     0.0723838  
C312     C      0.170430000000     0.307820000000     0.010590000000    -0.0837404  
C313     C      0.935850000000     0.246300000000     0.205250000000     0.244215   
C314     C      0.941070000000     0.202440000000     0.183220000000     0.0843821  
C315     C      0.966840000000     0.261740000000     0.221790000000    -0.160135   
C316     C      0.037320000000     0.296780000000     0.235080000000    -0.0833268  
C317     C      0.972180000000     0.217520000000     0.198870000000    -0.107127   
C318     C      0.018560000000     0.263790000000     0.236540000000     0.0242607  
C319     C      0.985510000000     0.247500000000     0.218810000000     0.0649596  
C320     C      0.068120000000     0.311660000000     0.251970000000     0.0734698  
C321     C      0.062890000000     0.262180000000     0.270950000000     0.0724959  
C322     C      0.031760000000     0.246570000000     0.255220000000    -0.0842455  
C323     C      0.401840000000     0.475070000000     0.416520000000     0.245418   
C324     C      0.396800000000     0.425500000000     0.434800000000     0.086265   
C325     C      0.371360000000     0.459880000000     0.398190000000    -0.160582   
C326     C      0.301980000000     0.426030000000     0.379010000000    -0.0826595  
C327     C      0.365810000000     0.409810000000     0.418530000000    -0.106676   
C328     C      0.319630000000     0.410570000000     0.380740000000     0.0235993  
C329     C      0.352600000000     0.426880000000     0.399340000000     0.066326   
C330     C      0.271520000000     0.410810000000     0.360950000000     0.0736774  
C331     C      0.274280000000     0.364460000000     0.348200000000     0.072861   
C332     C      0.305300000000     0.379390000000     0.364440000000    -0.0830053  
C333     C      0.529390000000     0.031670000000     0.817580000000     0.245223   
C334     C      0.522440000000     0.980130000000     0.823580000000     0.0844757  
C335     C      0.532270000000     0.030770000000     0.770150000000    -0.16134    
C336     C      0.549380000000     0.026220000000     0.671370000000    -0.0843369  
C337     C      0.524630000000     0.978430000000     0.776320000000    -0.109606   
C338     C      0.527930000000     0.001090000000     0.698540000000     0.0242301  
C339     C      0.528980000000     0.003680000000     0.748990000000     0.0675036  
C340     C      0.545890000000     0.024530000000     0.623980000000     0.0738927  
C341     C      0.500990000000     0.973380000000     0.629720000000     0.0735125  
C342     C      0.504010000000     0.974140000000     0.677130000000    -0.0850912  
C343     C      0.505130000000     0.030060000000     0.317230000000     0.246224   
C344     C      0.462450000000     0.977520000000     0.324120000000     0.0838103  
C345     C      0.501620000000     0.028360000000     0.269780000000    -0.162309   
C346     C      0.475620000000     0.971480000000     0.177120000000    -0.0827179  
C347     C      0.458640000000     0.975110000000     0.276800000000    -0.110751   
C348     C      0.477070000000     0.997730000000     0.198650000000     0.0212967  
C349     C      0.478710000000     0.000510000000     0.249060000000     0.0689042  
C350     C      0.478060000000     0.971010000000     0.129650000000     0.0727956  
C351     C      0.481310000000     0.020920000000     0.124260000000     0.0733363  
C352     C      0.479230000000     0.022290000000     0.171590000000    -0.0832172  
C353     C      0.609380000000     0.030460000000     0.012260000000     0.245909   
C354     C      0.603500000000     0.074460000000     0.030790000000     0.0864273  
C355     C      0.640170000000     0.046130000000     0.029700000000    -0.159532   
C356     C      0.699640000000     0.076340000000     0.086120000000    -0.0826083  
C357     C      0.633710000000     0.090180000000     0.049650000000    -0.107168   
C358     C      0.685430000000     0.093050000000     0.068820000000     0.0241601  
C359     C      0.652740000000     0.076240000000     0.049270000000     0.066424   
C360     C      0.730470000000     0.092540000000     0.103100000000     0.073474   
C361     C      0.733230000000     0.141540000000     0.089060000000     0.0740642  
C362     C      0.702950000000     0.126170000000     0.070390000000    -0.0834688  
C363     C      0.196820000000     0.833200000000     0.650430000000     0.245431   
C364     C      0.185630000000     0.875020000000     0.656880000000     0.0854955  
C365     C      0.198710000000     0.836680000000     0.602960000000    -0.161751   
C366     C      0.214050000000     0.858280000000     0.504290000000    -0.0843679  
C367     C      0.187190000000     0.878850000000     0.609580000000    -0.109091   
C368     C      0.191810000000     0.860550000000     0.531570000000     0.0231614  
C369     C      0.193170000000     0.859140000000     0.582010000000     0.0669659  
C370     C      0.210370000000     0.856100000000     0.456970000000     0.07267    
C371     C      0.163820000000     0.859460000000     0.462850000000     0.0727652  
C372     C      0.166930000000     0.861970000000     0.510260000000    -0.0839419  
C373     C      0.125300000000     0.812740000000     0.155850000000     0.245767   
C374     C      0.171860000000     0.809060000000     0.152160000000     0.0850525  
C375     C      0.122830000000     0.810910000000     0.108260000000    -0.162252   
C376     C      0.149400000000     0.789040000000     0.004800000000    -0.0845277  
C377     C      0.169590000000     0.806630000000     0.104710000000    -0.109002   
C378     C      0.145000000000     0.810090000000     0.031810000000     0.0232844  
C379     C      0.145410000000     0.808490000000     0.082230000000     0.0671693  
C380     C      0.151460000000     0.792670000000     0.957420000000     0.0727718  
C381     C      0.144610000000     0.837250000000     0.963050000000     0.0740031  
C382     C      0.141920000000     0.833970000000     0.010380000000    -0.0838285  
C383     C      0.276030000000     0.912550000000     0.844120000000     0.244887   
C384     C      0.270840000000     0.862910000000     0.862320000000     0.0850312  
C385     C      0.307090000000     0.927900000000     0.860560000000    -0.160199   
C386     C      0.366900000000     0.957870000000     0.915920000000    -0.0830797  
C387     C      0.301180000000     0.877640000000     0.880720000000    -0.107888   
C388     C      0.352800000000     0.926800000000     0.899260000000     0.0232233  
C389     C      0.320020000000     0.910630000000     0.880000000000     0.0656797  
C390     C      0.397800000000     0.972830000000     0.932570000000     0.0725661  
C391     C      0.400870000000     0.926650000000     0.919790000000     0.0724896  
C392     C      0.370500000000     0.911390000000     0.901330000000    -0.0835359  
C393     C      0.808380000000     0.631440000000     0.800860000000     0.244841   
C394     C      0.815320000000     0.682930000000     0.794220000000     0.0849082  
C395     C      0.805210000000     0.632450000000     0.848250000000    -0.160785   
C396     C      0.787470000000     0.637490000000     0.946810000000    -0.0834936  
C397     C      0.812830000000     0.684750000000     0.841400000000    -0.109414   
C398     C      0.809130000000     0.662400000000     0.919500000000     0.0232797  
C399     C      0.808330000000     0.659590000000     0.869060000000     0.0667323  
C400     C      0.790680000000     0.639500000000     0.994270000000     0.0740173  
C401     C      0.835760000000     0.690500000000     0.988260000000     0.0732384  
C402     C      0.832990000000     0.689440000000     0.940810000000    -0.0841759  
C403     C      0.861440000000     0.692240000000     0.487670000000     0.244952   
C404     C      0.854380000000     0.640650000000     0.493480000000     0.0836274  
C405     C      0.863890000000     0.691260000000     0.440200000000    -0.161639   
C406     C      0.880000000000     0.686910000000     0.341130000000    -0.0839701  
C407     C      0.856110000000     0.638860000000     0.446100000000    -0.109105   
C408     C      0.858890000000     0.661610000000     0.368360000000     0.0232931  
C409     C      0.860320000000     0.664110000000     0.418860000000     0.0666046  
C410     C      0.875990000000     0.685510000000     0.293840000000     0.0733568  
C411     C      0.831290000000     0.634240000000     0.299670000000     0.0740244  
C412     C      0.834810000000     0.634730000000     0.347010000000    -0.083833   
C413     C      0.734290000000     0.587410000000     0.584710000000     0.245393   
C414     C      0.729640000000     0.631760000000     0.605740000000     0.0851513  
C415     C      0.703650000000     0.572520000000     0.566900000000    -0.160135   
C416     C      0.634110000000     0.538260000000     0.547310000000    -0.0832508  
C417     C      0.698690000000     0.617030000000     0.589430000000    -0.107102   
C418     C      0.652430000000     0.571310000000     0.549980000000     0.0235747  
C419     C      0.685230000000     0.587100000000     0.569080000000     0.0659023  
C420     C      0.603740000000     0.523930000000     0.528880000000     0.0725134  
C421     C      0.608120000000     0.573880000000     0.517240000000     0.0728485  
C422     C      0.638990000000     0.589030000000     0.533960000000    -0.0836774  
C423     C      0.061290000000     0.801350000000     0.773290000000     0.24473    
C424     C      0.068820000000     0.758970000000     0.750760000000     0.0853364  
C425     C      0.030230000000     0.784990000000     0.757010000000    -0.160792   
C426     C      0.971750000000     0.755070000000     0.698660000000    -0.0828591  
C427     C      0.038240000000     0.742570000000     0.733160000000    -0.107631   
C428     C      0.985690000000     0.738440000000     0.717010000000     0.0226125  
C429     C      0.018420000000     0.755500000000     0.735930000000     0.0670144  
C430     C      0.940820000000     0.738810000000     0.682250000000     0.0731056  
C431     C      0.937280000000     0.689840000000     0.699580000000     0.0726385  
C432     C      0.967930000000     0.705350000000     0.717140000000    -0.0831582  
H1       H      0.666180000000     0.922820000000     0.751030000000     0.0260324  
H2       H      0.823490000000     0.071120000000     0.665160000000     0.0204688  
H3       H      0.782250000000     0.986210000000     0.757340000000     0.0477091  
H4       H      0.796820000000     0.017570000000     0.692490000000     0.05493    
H5       H      0.691990000000     0.975750000000     0.720670000000     0.0514123  
H6       H      0.719180000000     0.028930000000     0.737430000000     0.0794609  
H7       H      0.755640000000     0.932460000000     0.784990000000     0.0230724  
H8       H      0.749740000000     0.096500000000     0.739080000000     0.149387   
H9       H      0.845450000000     0.267690000000     0.622290000000     0.0239169  
H10      H      0.003520000000     0.414670000000     0.535930000000     0.0240643  
H11      H      0.951430000000     0.308370000000     0.556010000000     0.0488595  
H12      H      0.978000000000     0.362500000000     0.568540000000     0.0556584  
H13      H      0.872770000000     0.320760000000     0.592520000000     0.0489253  
H14      H      0.887910000000     0.348980000000     0.524910000000     0.0789969  
H15      H      0.924020000000     0.255920000000     0.588540000000     0.0234381  
H16      H      0.903300000000     0.413450000000     0.514740000000     0.150209   
H17      H      0.008390000000     0.596420000000     0.447500000000     0.0238268  
H18      H      0.166750000000     0.747550000000     0.365240000000     0.0199057  
H19      H      0.117260000000     0.643240000000     0.389810000000     0.04858    
H20      H      0.141890000000     0.695580000000     0.397640000000     0.0545456  
H21      H      0.034240000000     0.649970000000     0.419790000000     0.049192   
H22      H      0.050880000000     0.682800000000     0.359970000000     0.0789839  
H23      H      0.091550000000     0.590960000000     0.421840000000     0.0239017  
H24      H      0.066750000000     0.747730000000     0.353150000000     0.152065   
H25      H      0.504610000000     0.590750000000     0.923810000000     0.0231714  
H26      H      0.661570000000     0.739690000000     0.833030000000     0.0196774  
H27      H      0.620800000000     0.651270000000     0.918510000000     0.0481241  
H28      H      0.636240000000     0.686120000000     0.860620000000     0.0545789  
H29      H      0.529940000000     0.643030000000     0.892390000000     0.0498379  
H30      H      0.556460000000     0.694780000000     0.903520000000     0.0777464  
H31      H      0.594140000000     0.597420000000     0.945710000000     0.0234444  
H32      H      0.585130000000     0.762010000000     0.903130000000     0.144585   
H33      H      0.169030000000     0.923260000000     0.253920000000     0.0260566  
H34      H      0.326950000000     0.071320000000     0.163160000000     0.0200954  
H35      H      0.285240000000     0.983340000000     0.248820000000     0.0483742  
H36      H      0.300980000000     0.017780000000     0.190670000000     0.0549408  
H37      H      0.194610000000     0.975420000000     0.221880000000     0.0487645  
H38      H      0.221370000000     0.027280000000     0.231720000000     0.0787697  
H39      H      0.258390000000     0.929690000000     0.276550000000     0.0232472  
H40      H      0.230460000000     0.078140000000     0.172590000000     0.150402   
H41      H      0.424490000000     0.263580000000     0.114070000000     0.023819   
H42      H      0.418060000000     0.414820000000     0.034980000000     0.0210476  
H43      H      0.362710000000     0.309090000000     0.050170000000     0.0489699  
H44      H      0.390880000000     0.362250000000     0.065650000000     0.0550872  
H45      H      0.452140000000     0.317230000000     0.086020000000     0.0489957  
H46      H      0.467160000000     0.348450000000     0.021320000000     0.0787111  
H47      H      0.335910000000     0.256330000000     0.081040000000     0.0239327  
H48      H      0.516710000000     0.413200000000     0.013800000000     0.150398   
H49      H      0.618060000000     0.808070000000     0.667250000000     0.0253062  
H50      H      0.626300000000     0.776510000000     0.439570000000     0.0204437  
H51      H      0.712880000000     0.814340000000     0.597790000000     0.0485905  
H52      H      0.622990000000     0.770810000000     0.521670000000     0.0549489  
H53      H      0.620260000000     0.803700000000     0.585090000000     0.0501686  
H54      H      0.717590000000     0.849360000000     0.533350000000     0.0796056  
H55      H      0.710060000000     0.818700000000     0.679850000000     0.0232828  
H56      H      0.739410000000     0.848800000000     0.440830000000     0.147371   
H57      H      0.618510000000     0.811260000000     0.169580000000     0.0236761  
H58      H      0.715060000000     0.862930000000     0.948430000000     0.0206516  
H59      H      0.712270000000     0.898210000000     0.095540000000     0.0490614  
H60      H      0.714390000000     0.866120000000     0.030470000000     0.0552341  
H61      H      0.618760000000     0.817130000000     0.087430000000     0.0492368  
H62      H      0.620730000000     0.853060000000     0.024570000000     0.0794346  
H63      H      0.711370000000     0.891790000000     0.177700000000     0.0236307  
H64      H      0.602040000000     0.825410000000     0.935390000000     0.148416   
H65      H      0.668600000000     0.745490000000     0.251390000000     0.0236249  
H66      H      0.824780000000     0.751810000000     0.165250000000     0.0203825  
H67      H      0.784650000000     0.797340000000     0.256470000000     0.0481366  
H68      H      0.799140000000     0.779720000000     0.192710000000     0.0540634  
H69      H      0.693840000000     0.717950000000     0.220860000000     0.0486754  
H70      H      0.720180000000     0.691470000000     0.237250000000     0.0787212  
H71      H      0.758540000000     0.825010000000     0.284110000000     0.0233053  
H72      H      0.729070000000     0.648630000000     0.179750000000     0.149756   
H73      H      0.583390000000     0.836480000000     0.363220000000     0.0234486  
H74      H      0.593800000000     0.995260000000     0.450430000000     0.0220786  
H75      H      0.640260000000     0.952800000000     0.365730000000     0.0495669  
H76      H      0.621450000000     0.969110000000     0.423660000000     0.0562179  
H77      H      0.557300000000     0.862740000000     0.394390000000     0.0501864  
H78      H      0.532540000000     0.889680000000     0.381560000000     0.0783419  
H79      H      0.666630000000     0.925260000000     0.338670000000     0.0245384  
H80      H      0.494680000000     0.919090000000     0.380780000000     0.148252   
H81      H      0.954910000000     0.478310000000     0.834860000000     0.0238497  
H82      H      0.960600000000     0.513860000000     0.605810000000     0.0205478  
H83      H      0.048160000000     0.566840000000     0.762320000000     0.0494139  
H84      H      0.957750000000     0.517410000000     0.687760000000     0.05507    
H85      H      0.956350000000     0.483440000000     0.752510000000     0.0496135  
H86      H      0.053210000000     0.535880000000     0.699120000000     0.0803302  
H87      H      0.046120000000     0.561070000000     0.844630000000     0.0241163  
H88      H      0.074160000000     0.557050000000     0.605990000000     0.148748   
H89      H      0.046370000000     0.483580000000     0.344920000000     0.024397   
H90      H      0.961840000000     0.444590000000     0.105630000000     0.0212196  
H91      H      0.957330000000     0.472280000000     0.251720000000     0.0507689  
H92      H      0.958990000000     0.438300000000     0.187680000000     0.0566506  
H93      H      0.048670000000     0.479710000000     0.262610000000     0.0499455  
H94      H      0.053710000000     0.516610000000     0.199140000000     0.0803608  
H95      H      0.955710000000     0.476310000000     0.334010000000     0.0261002  
H96      H      0.074950000000     0.516840000000     0.105960000000     0.148343   
H97      H      0.917420000000     0.502400000000     0.029870000000     0.0234537  
H98      H      0.924010000000     0.659050000000     0.119060000000     0.0208411  
H99      H      0.971810000000     0.618630000000     0.033210000000     0.0493187  
H100     H      0.952610000000     0.634150000000     0.091360000000     0.0556462  
H101     H      0.890390000000     0.527410000000     0.061890000000     0.048632   
H102     H      0.864400000000     0.553150000000     0.050780000000     0.0788889  
H103     H      0.999220000000     0.592320000000     0.005410000000     0.0244027  
H104     H      0.821970000000     0.560950000000     0.110030000000     0.150691   
H105     H      0.283470000000     0.140100000000     0.998520000000     0.0237074  
H106     H      0.381770000000     0.186340000000     0.779340000000     0.0219662  
H107     H      0.377230000000     0.145990000000     0.925880000000     0.0493817  
H108     H      0.380240000000     0.181760000000     0.861380000000     0.056619   
H109     H      0.284440000000     0.135210000000     0.916250000000     0.050568   
H110     H      0.286850000000     0.100960000000     0.853130000000     0.0799457  
H111     H      0.375570000000     0.150640000000     0.008110000000     0.023756   
H112     H      0.269050000000     0.110450000000     0.763600000000     0.156389   
H113     H      0.383570000000     0.194090000000     0.278730000000     0.0246344  
H114     H      0.286240000000     0.145930000000     0.498260000000     0.0213105  
H115     H      0.290090000000     0.188220000000     0.352280000000     0.0493463  
H116     H      0.287130000000     0.151400000000     0.416290000000     0.0569299  
H117     H      0.382530000000     0.198070000000     0.361040000000     0.0528561  
H118     H      0.380390000000     0.232380000000     0.424550000000     0.0798297  
H119     H      0.291870000000     0.184570000000     0.269750000000     0.0258896  
H120     H      0.380120000000     0.248860000000     0.520010000000     0.149537   
H121     H      0.424760000000     0.159720000000     0.616570000000     0.0257652  
H122     H      0.418280000000     0.002830000000     0.533990000000     0.0216149  
H123     H      0.363190000000     0.053580000000     0.549030000000     0.0499292  
H124     H      0.390990000000     0.028050000000     0.564870000000     0.0559808  
H125     H      0.452410000000     0.133750000000     0.588490000000     0.0498003  
H126     H      0.467920000000     0.118480000000     0.523110000000     0.0795046  
H127     H      0.336320000000     0.079510000000     0.579870000000     0.0258222  
H128     H      0.517340000000     0.103070000000     0.515670000000     0.151148   
H129     H      0.095080000000     0.496040000000     0.950320000000     0.0239865  
H130     H      0.086970000000     0.338060000000     0.868930000000     0.0212274  
H131     H      0.032530000000     0.389110000000     0.885700000000     0.0495362  
H132     H      0.060320000000     0.363700000000     0.900510000000     0.0556873  
H133     H      0.122340000000     0.469790000000     0.921730000000     0.0489816  
H134     H      0.137030000000     0.453680000000     0.856680000000     0.0789441  
H135     H      0.006140000000     0.415270000000     0.917160000000     0.0243322  
H136     H      0.186130000000     0.437900000000     0.848130000000     0.150048   
H137     H      0.171680000000     0.248090000000     0.753390000000     0.0228115  
H138     H      0.328850000000     0.256030000000     0.663620000000     0.020875   
H139     H      0.287860000000     0.302520000000     0.750110000000     0.0491229  
H140     H      0.303440000000     0.284020000000     0.691540000000     0.0553478  
H141     H      0.196720000000     0.221110000000     0.721010000000     0.0478949  
H142     H      0.222620000000     0.195120000000     0.730370000000     0.0780139  
H143     H      0.261580000000     0.329820000000     0.778150000000     0.0235349  
H144     H      0.231340000000     0.153460000000     0.670400000000     0.150696   
H145     H      0.525260000000     0.475450000000     0.833660000000     0.0262973  
H146     H      0.476920000000     0.524030000000     0.613940000000     0.0209441  
H147     H      0.438480000000     0.484010000000     0.762240000000     0.0492215  
H148     H      0.473160000000     0.520070000000     0.696250000000     0.056044   
H149     H      0.519270000000     0.471280000000     0.751480000000     0.0509238  
H150     H      0.479870000000     0.435760000000     0.690490000000     0.0798903  
H151     H      0.444770000000     0.487690000000     0.844720000000     0.0232993  
H152     H      0.506980000000     0.442520000000     0.601810000000     0.149784   
H153     H      0.481470000000     0.527890000000     0.116280000000     0.0237478  
H154     H      0.519180000000     0.557460000000     0.344400000000     0.0235724  
H155     H      0.568460000000     0.519540000000     0.187290000000     0.0492637  
H156     H      0.522960000000     0.563890000000     0.262480000000     0.0558632  
H157     H      0.487050000000     0.531260000000     0.198550000000     0.0507958  
H158     H      0.536140000000     0.483510000000     0.250890000000     0.0801025  
H159     H      0.562340000000     0.516300000000     0.104950000000     0.0234749  
H160     H      0.556550000000     0.482260000000     0.344170000000     0.148635   
H161     H      0.893950000000     0.182910000000     0.775540000000     0.0231845  
H162     H      0.852520000000     0.227890000000     0.014180000000     0.0221674  
H163     H      0.821280000000     0.202100000000     0.868770000000     0.0491543  
H164     H      0.856920000000     0.234020000000     0.932260000000     0.0552726  
H165     H      0.900620000000     0.186990000000     0.857890000000     0.0500655  
H166     H      0.868610000000     0.152680000000     0.922390000000     0.0785059  
H167     H      0.815230000000     0.197980000000     0.786730000000     0.024048   
H168     H      0.843320000000     0.123190000000     0.007980000000     0.150793   
H169     H      0.854540000000     0.141640000000     0.504270000000     0.0233711  
H170     H      0.817750000000     0.113320000000     0.276740000000     0.0210701  
H171     H      0.769530000000     0.153510000000     0.433590000000     0.0517917  
H172     H      0.813510000000     0.107020000000     0.358540000000     0.0553162  
H173     H      0.848890000000     0.138450000000     0.422140000000     0.0487239  
H174     H      0.801410000000     0.188090000000     0.369170000000     0.0795643  
H175     H      0.775820000000     0.156660000000     0.515990000000     0.0253864  
H176     H      0.826680000000     0.217770000000     0.283430000000     0.150498   
H177     H      0.194550000000     0.385420000000     0.666900000000     0.0261855  
H178     H      0.142960000000     0.288500000000     0.447330000000     0.020484   
H179     H      0.105900000000     0.292060000000     0.594700000000     0.0483578  
H180     H      0.139670000000     0.289360000000     0.529500000000     0.0554605  
H181     H      0.188490000000     0.384390000000     0.584680000000     0.0526703  
H182     H      0.150130000000     0.381970000000     0.522700000000     0.0798947  
H183     H      0.112290000000     0.293850000000     0.677030000000     0.0231073  
H184     H      0.131560000000     0.381270000000     0.428000000000     0.149724   
H185     H      0.230680000000     0.377720000000     0.938070000000     0.0231876  
H186     H      0.182030000000     0.292600000000     0.177350000000     0.0205441  
H187     H      0.152790000000     0.288160000000     0.030290000000     0.0495537  
H188     H      0.186180000000     0.289600000000     0.095530000000     0.054637   
H189     H      0.236240000000     0.379970000000     0.020440000000     0.0485344  
H190     H      0.205260000000     0.385270000000     0.083190000000     0.0795261  
H191     H      0.147920000000     0.286520000000     0.947960000000     0.0237232  
H192     H      0.225810000000     0.406310000000     0.176470000000     0.148468   
H193     H      0.081720000000     0.337190000000     0.249790000000     0.0263156  
H194     H      0.931990000000     0.179280000000     0.168030000000     0.0225477  
H195     H      0.018150000000     0.221130000000     0.258210000000     0.0479256  
H196     H      0.985730000000     0.205690000000     0.194730000000     0.0545443  
H197     H      0.028600000000     0.311230000000     0.220250000000     0.0517982  
H198     H      0.975780000000     0.284560000000     0.237890000000     0.0785888  
H199     H      0.072100000000     0.247870000000     0.284880000000     0.0228429  
H200     H      0.908260000000     0.254600000000     0.240230000000     0.147516   
H201     H      0.258900000000     0.423790000000     0.360570000000     0.0266971  
H202     H      0.405890000000     0.411150000000     0.449030000000     0.0232591  
H203     H      0.317850000000     0.366420000000     0.363640000000     0.0488998  
H204     H      0.352390000000     0.384390000000     0.421590000000     0.0554732  
H205     H      0.311140000000     0.449660000000     0.392220000000     0.0492967  
H206     H      0.362950000000     0.474310000000     0.382430000000     0.0785257  
H207     H      0.264110000000     0.340320000000     0.336320000000     0.0230846  
H208     H      0.414060000000     0.515150000000     0.441940000000     0.15056    
H209     H      0.562630000000     0.044800000000     0.604290000000     0.0246737  
H210     H      0.518500000000     0.959640000000     0.843090000000     0.0222511  
H211     H      0.486860000000     0.954240000000     0.696970000000     0.0498586  
H212     H      0.522470000000     0.957230000000     0.761220000000     0.0563086  
H213     H      0.568460000000     0.047300000000     0.686670000000     0.051904   
H214     H      0.535730000000     0.050820000000     0.749940000000     0.0792966  
H215     H      0.481570000000     0.952420000000     0.614660000000     0.0247588  
H216     H      0.510900000000     0.055990000000     0.835580000000     0.151043   
H217     H      0.477870000000     0.950720000000     0.114420000000     0.025171   
H218     H      0.446750000000     0.956890000000     0.344080000000     0.0208744  
H219     H      0.479920000000     0.042760000000     0.186960000000     0.0492713  
H220     H      0.440330000000     0.953300000000     0.262010000000     0.055264   
H221     H      0.474030000000     0.952030000000     0.196920000000     0.0497352  
H222     H      0.517510000000     0.048560000000     0.249270000000     0.0812498  
H223     H      0.483650000000     0.040820000000     0.104750000000     0.0238684  
H224     H      0.517440000000     0.070340000000     0.341910000000     0.152375   
H225     H      0.740540000000     0.078650000000     0.115720000000     0.0240442  
H226     H      0.589770000000     0.086280000000     0.032500000000     0.0212917  
H227     H      0.693810000000     0.140500000000     0.056540000000     0.0488232  
H228     H      0.641590000000     0.112960000000     0.065220000000     0.055628   
H229     H      0.687120000000     0.050820000000     0.087100000000     0.0512295  
H230     H      0.654120000000     0.034650000000     0.027000000000     0.0793026  
H231     H      0.745780000000     0.167130000000     0.089230000000     0.0246564  
H232     H      0.604400000000     0.005230000000     0.960500000000     0.15036    
H233     H      0.227780000000     0.853670000000     0.437240000000     0.0234732  
H234     H      0.180210000000     0.890450000000     0.676640000000     0.0224456  
H235     H      0.149160000000     0.863600000000     0.530170000000     0.04972    
H236     H      0.183270000000     0.896870000000     0.594670000000     0.055793   
H237     H      0.233910000000     0.857630000000     0.519460000000     0.0491594  
H238     H      0.203490000000     0.821040000000     0.582620000000     0.0797427  
H239     H      0.143670000000     0.859680000000     0.447860000000     0.0239324  
H240     H      0.225290000000     0.821670000000     0.675480000000     0.149421   
H241     H      0.155390000000     0.776180000000     0.937780000000     0.0236486  
H242     H      0.191650000000     0.808530000000     0.167880000000     0.021173   
H243     H      0.138630000000     0.850810000000     0.030190000000     0.0523866  
H244     H      0.187530000000     0.804710000000     0.085650000000     0.0558899  
H245     H      0.151590000000     0.770090000000     0.020220000000     0.0491832  
H246     H      0.103440000000     0.811780000000     0.091780000000     0.0801153  
H247     H      0.142880000000     0.856580000000     0.947960000000     0.0259313  
H248     H      0.086020000000     0.793180000000     0.186530000000     0.152896   
H249     H      0.407770000000     0.996910000000     0.944640000000     0.0231114  
H250     H      0.257330000000     0.837360000000     0.864150000000     0.0201447  
H251     H      0.361450000000     0.887790000000     0.888040000000     0.0479898  
H252     H      0.309310000000     0.862910000000     0.896180000000     0.0541044  
H253     H      0.354270000000     0.970750000000     0.916650000000     0.0488793  
H254     H      0.320860000000     0.953320000000     0.857490000000     0.0789631  
H255     H      0.413590000000     0.913770000000     0.920350000000     0.0232615  
H256     H      0.255620000000     0.936530000000     0.851030000000     0.152299   
H257     H      0.773800000000     0.619390000000     0.014100000000     0.0265956  
H258     H      0.819340000000     0.703370000000     0.774490000000     0.0208467  
H259     H      0.850300000000     0.709190000000     0.920880000000     0.0494326  
H260     H      0.814890000000     0.705990000000     0.856190000000     0.0549273  
H261     H      0.768440000000     0.616340000000     0.931580000000     0.0517584  
H262     H      0.801650000000     0.612480000000     0.868720000000     0.080664   
H263     H      0.855160000000     0.711530000000     0.003220000000     0.023853   
H264     H      0.827110000000     0.607210000000     0.783550000000     0.15125    
H265     H      0.892490000000     0.705920000000     0.274170000000     0.0243373  
H266     H      0.850480000000     0.620160000000     0.512970000000     0.0213347  
H267     H      0.817890000000     0.614710000000     0.366880000000     0.049653   
H268     H      0.853700000000     0.617590000000     0.430860000000     0.0552545  
H269     H      0.899200000000     0.707950000000     0.356330000000     0.0509754  
H270     H      0.867250000000     0.711320000000     0.420120000000     0.0792707  
H271     H      0.811750000000     0.613330000000     0.284690000000     0.0254672  
H272     H      0.843480000000     0.716950000000     0.506130000000     0.15079    
H273     H      0.590500000000     0.498350000000     0.527820000000     0.0236548  
H274     H      0.738910000000     0.654920000000     0.621010000000     0.0202469  
H275     H      0.652140000000     0.614550000000     0.533770000000     0.0482584  
H276     H      0.685460000000     0.629190000000     0.593360000000     0.0546374  
H277     H      0.642700000000     0.523190000000     0.560090000000     0.050468   
H278     H      0.694940000000     0.549880000000     0.550390000000     0.0784614  
H279     H      0.598690000000     0.588570000000     0.505650000000     0.0233226  
H280     H      0.762210000000     0.579000000000     0.550770000000     0.147432   
H281     H      0.931000000000     0.752710000000     0.668740000000     0.0253003  
H282     H      0.083180000000     0.747930000000     0.747220000000     0.0229816  
H283     H      0.977260000000     0.691320000000     0.731530000000     0.0488805  
H284     H      0.030560000000     0.720090000000     0.716650000000     0.0558296  
H285     H      0.984620000000     0.780570000000     0.696550000000     0.0487637  
H286     H      0.015500000000     0.795530000000     0.761340000000     0.0786098  
H287     H      0.924420000000     0.664270000000     0.700840000000     0.0239431  
H288     H      0.079830000000     0.845740000000     0.768800000000     0.150417   
N1       N      0.786910000000     0.081030000000     0.684330000000    -0.23398    
N2       N      0.708960000000     0.923580000000     0.770000000000    -0.205987   
N3       N      0.960780000000     0.412850000000     0.513610000000    -0.23364    
N4       N      0.882530000000     0.257720000000     0.607250000000    -0.206273   
N5       N      0.123650000000     0.746220000000     0.346580000000    -0.234786   
N6       N      0.047990000000     0.589700000000     0.436610000000    -0.206401   
N7       N      0.623300000000     0.747440000000     0.849790000000    -0.23478    
N8       N      0.547460000000     0.590160000000     0.936970000000    -0.206597   
N9       N      0.288850000000     0.079570000000     0.178940000000    -0.234762   
N10      N      0.211780000000     0.922550000000     0.267430000000    -0.206138   
N11      N      0.458860000000     0.412930000000     0.012200000000    -0.233952   
N12      N      0.378170000000     0.255910000000     0.099580000000    -0.206097   
N13      N      0.673310000000     0.816600000000     0.438750000000    -0.234069   
N14      N      0.664140000000     0.814380000000     0.679600000000    -0.205962   
N15      N      0.668140000000     0.855210000000     0.938540000000    -0.233665   
N16      N      0.665140000000     0.850680000000     0.179690000000    -0.206243   
N17      N      0.787290000000     0.705630000000     0.183770000000    -0.234052   
N18      N      0.711660000000     0.787360000000     0.269830000000    -0.206307   
N19      N      0.547560000000     0.957260000000     0.433920000000    -0.23433    
N20      N      0.626940000000     0.878900000000     0.348630000000    -0.206317   
N21      N      0.008060000000     0.521980000000     0.604810000000    -0.234039   
N22      N      0.000680000000     0.518870000000     0.845820000000    -0.206025   
N23      N      0.008870000000     0.484660000000     0.104750000000    -0.234059   
N24      N      0.001190000000     0.480920000000     0.345520000000    -0.205537   
N25      N      0.878060000000     0.620120000000     0.103620000000    -0.234849   
N26      N      0.960330000000     0.545480000000     0.015300000000    -0.206222   
N27      N      0.335080000000     0.147040000000     0.768300000000    -0.233311   
N28      N      0.329680000000     0.146370000000     0.009370000000    -0.206112   
N29      N      0.332880000000     0.185340000000     0.509200000000    -0.233836   
N30      N      0.337560000000     0.188420000000     0.268170000000    -0.205711   
N31      N      0.459380000000     0.045690000000     0.512390000000    -0.233991   
N32      N      0.378510000000     0.121640000000     0.600190000000    -0.205468   
N33      N      0.127940000000     0.380660000000     0.846330000000    -0.234254   
N34      N      0.048620000000     0.457690000000     0.935780000000    -0.206293   
N35      N      0.290140000000     0.209800000000     0.678290000000    -0.23504    
N36      N      0.214750000000     0.290980000000     0.767980000000    -0.206644   
N37      N      0.481490000000     0.482890000000     0.604360000000    -0.233854   
N38      N      0.485780000000     0.482370000000     0.845240000000    -0.206105   
N39      N      0.524520000000     0.516380000000     0.345290000000    -0.233742   
N40      N      0.521070000000     0.521200000000     0.104550000000    -0.206576   
N41      N      0.856930000000     0.186270000000     0.015970000000    -0.233499   
N42      N      0.853710000000     0.189490000000     0.775080000000    -0.206263   
N43      N      0.813090000000     0.154800000000     0.275210000000    -0.233774   
N44      N      0.816020000000     0.150020000000     0.516210000000    -0.206015   
N45      N      0.149140000000     0.334820000000     0.437080000000    -0.234068   
N46      N      0.154230000000     0.339500000000     0.678010000000    -0.20599    
N47      N      0.190420000000     0.340190000000     0.177830000000    -0.234112   
N48      N      0.188490000000     0.332280000000     0.936930000000    -0.206347   
N49      N      0.922930000000     0.216610000000     0.186050000000    -0.233767   
N50      N      0.080960000000     0.294490000000     0.269300000000    -0.206047   
N51      N      0.414710000000     0.457850000000     0.434190000000    -0.234153   
N52      N      0.257580000000     0.380110000000     0.346280000000    -0.206114   
N53      N      0.523720000000     0.006030000000     0.844210000000    -0.233776   
N54      N      0.521270000000     0.998720000000     0.603410000000    -0.206653   
N55      N      0.486210000000     0.004290000000     0.344270000000    -0.234158   
N56      N      0.481780000000     0.995960000000     0.103530000000    -0.20627    
N57      N      0.591030000000     0.044580000000     0.013120000000    -0.23416    
N58      N      0.747100000000     0.124900000000     0.104670000000    -0.206106   
N59      N      0.189230000000     0.851660000000     0.677260000000    -0.234203   
N60      N      0.184880000000     0.855650000000     0.436500000000    -0.206573   
N61      N      0.150570000000     0.813140000000     0.177670000000    -0.233832   
N62      N      0.149970000000     0.817150000000     0.936820000000    -0.206232   
N63      N      0.257980000000     0.880070000000     0.844930000000    -0.234766   
N64      N      0.414630000000     0.957320000000     0.934570000000    -0.206473   
N65      N      0.814150000000     0.656990000000     0.773930000000    -0.233628   
N66      N      0.815270000000     0.665390000000     0.014750000000    -0.20569    
N67      N      0.855920000000     0.666620000000     0.514250000000    -0.233978   
N68      N      0.851210000000     0.659780000000     0.273390000000    -0.205888   
N69      N      0.747320000000     0.617100000000     0.603840000000    -0.234262   
N70      N      0.590640000000     0.541580000000     0.514640000000    -0.206562   
N71      N      0.080630000000     0.788370000000     0.770020000000    -0.23381    
N72      N      0.923640000000     0.706440000000     0.682860000000    -0.205921   
O1       O      0.847120000000     0.642310000000     0.584470000000    -0.557404   
O2       O      0.822610000000     0.635470000000     0.708890000000    -0.544168   
O3       O      0.792140000000     0.617190000000     0.628130000000    -0.542259   
O4       O      0.877900000000     0.660560000000     0.665110000000    -0.557274   
O5       O      0.879040000000     0.706510000000     0.658040000000    -0.553663   
O6       O      0.792270000000     0.662760000000     0.625220000000    -0.558184   
O7       O      0.824610000000     0.681850000000     0.704120000000    -0.560675   
O8       O      0.846860000000     0.687580000000     0.579170000000    -0.548938   
O9       O      0.182330000000     0.821830000000     0.741790000000    -0.544145   
O10      O      0.159130000000     0.802820000000     0.866210000000    -0.557965   
O11      O      0.127510000000     0.789960000000     0.786320000000    -0.557059   
O12      O      0.213650000000     0.834580000000     0.821770000000    -0.560032   
O13      O      0.211790000000     0.879100000000     0.825600000000    -0.547779   
O14      O      0.124750000000     0.833730000000     0.794910000000    -0.547552   
O15      O      0.157840000000     0.847570000000     0.872970000000    -0.555176   
O16      O      0.178480000000     0.865150000000     0.747570000000    -0.557504   
O17      O      0.490400000000     0.974610000000     0.038760000000    -0.553419   
O18      O      0.513650000000     0.981060000000     0.913910000000    -0.55941    
O19      O      0.545320000000     0.999090000000     0.993300000000    -0.541747   
O20      O      0.459020000000     0.956600000000     0.958530000000    -0.557415   
O21      O      0.460180000000     0.002710000000     0.954490000000    -0.556484   
O22      O      0.546410000000     0.045130000000     0.989680000000    -0.557319   
O23      O      0.515220000000     0.027250000000     0.909450000000    -0.547463   
O24      O      0.491640000000     0.020710000000     0.033940000000    -0.559363   
O25      O      0.157390000000     0.312400000000     0.373190000000    -0.558123   
O26      O      0.178960000000     0.315680000000     0.248050000000    -0.55838    
O27      O      0.211690000000     0.334900000000     0.326630000000    -0.554358   
O28      O      0.124810000000     0.293140000000     0.294580000000    -0.555602   
O29      O      0.127620000000     0.339760000000     0.285750000000    -0.555906   
O30      O      0.213430000000     0.381280000000     0.322490000000    -0.555588   
O31      O      0.182760000000     0.362830000000     0.242070000000    -0.54458    
O32      O      0.158580000000     0.358280000000     0.366060000000    -0.546154   
O33      O      0.824450000000     0.140330000000     0.206100000000    -0.560128   
O34      O      0.847640000000     0.156500000000     0.081320000000    -0.547002   
O35      O      0.879210000000     0.171100000000     0.160890000000    -0.555564   
O36      O      0.792700000000     0.125690000000     0.126570000000    -0.554227   
O37      O      0.791100000000     0.170450000000     0.128120000000    -0.556397   
O38      O      0.876490000000     0.215060000000     0.166550000000    -0.54531    
O39      O      0.846470000000     0.201330000000     0.085360000000    -0.557645   
O40      O      0.821010000000     0.183950000000     0.209410000000    -0.545667   
O41      O      0.490510000000     0.467930000000     0.533930000000    -0.548694   
O42      O      0.514750000000     0.485740000000     0.409800000000    -0.54316    
O43      O      0.545520000000     0.497320000000     0.490230000000    -0.556677   
O44      O      0.459390000000     0.456200000000     0.454270000000    -0.553369   
O45      O      0.459880000000     0.501880000000     0.459400000000    -0.548676   
O46      O      0.545920000000     0.543030000000     0.494900000000    -0.557669   
O47      O      0.514730000000     0.531120000000     0.415280000000    -0.556359   
O48      O      0.490780000000     0.513420000000     0.539840000000    -0.558151   
O49      O      0.185140000000     0.361030000000     0.741750000000    -0.553417   
O50      O      0.202810000000     0.356590000000     0.866810000000    -0.55744    
O51      O      0.215560000000     0.336860000000     0.788080000000    -0.555224   
O52      O      0.172500000000     0.380630000000     0.820510000000    -0.54665    
O53      O      0.127950000000     0.334760000000     0.828820000000    -0.560157   
O54      O      0.170190000000     0.291180000000     0.792060000000    -0.559367   
O55      O      0.158510000000     0.310110000000     0.872570000000    -0.557891   
O56      O      0.139700000000     0.315690000000     0.748430000000    -0.557618   
O57      O      0.358310000000     0.178140000000     0.705090000000    -0.558661   
O58      O      0.356420000000     0.197850000000     0.580280000000    -0.544295   
O59      O      0.335790000000     0.209940000000     0.658680000000    -0.557466   
O60      O      0.378910000000     0.166140000000     0.626630000000    -0.552881   
O61      O      0.332730000000     0.122120000000     0.616290000000    -0.55529    
O62      O      0.289880000000     0.165120000000     0.652830000000    -0.550994   
O63      O      0.309710000000     0.154260000000     0.572530000000    -0.559826   
O64      O      0.312820000000     0.133270000000     0.696460000000    -0.541751   
O65      O      0.025230000000     0.533070000000     0.915730000000    -0.557534   
O66      O      0.030180000000     0.515400000000     0.040540000000    -0.542847   
O67      O      0.049200000000     0.502460000000     0.961470000000    -0.554876   
O68      O      0.006060000000     0.546080000000     0.994780000000    -0.551537   
O69      O      0.960260000000     0.500830000000     0.991020000000    -0.559768   
O70      O      0.003050000000     0.458000000000     0.953780000000    -0.558363   
O71      O      0.984690000000     0.470190000000     0.034410000000    -0.559876   
O72      O      0.978640000000     0.488870000000     0.910270000000    -0.557229   
O73      O      0.690400000000     0.864250000000     0.249160000000    -0.557081   
O74      O      0.695170000000     0.846740000000     0.374130000000    -0.542566   
O75      O      0.713450000000     0.832820000000     0.295100000000    -0.554481   
O76      O      0.672040000000     0.878210000000     0.328140000000    -0.551626   
O77      O      0.625670000000     0.833540000000     0.324960000000    -0.559388   
O78      O      0.666730000000     0.788970000000     0.287690000000    -0.558611   
O79      O      0.649170000000     0.802050000000     0.368380000000    -0.559619   
O80      O      0.643210000000     0.820740000000     0.244210000000    -0.556913   
O81      O      0.864260000000     0.684330000000     0.203380000000    -0.556489   
O82      O      0.845640000000     0.688040000000     0.078590000000    -0.556263   
O83      O      0.832390000000     0.706940000000     0.157660000000    -0.557419   
O84      O      0.877460000000     0.665260000000     0.124390000000    -0.556269   
O85      O      0.832920000000     0.618970000000     0.128730000000    -0.551036   
O86      O      0.788710000000     0.660360000000     0.166130000000    -0.548165   
O87      O      0.800990000000     0.641970000000     0.085490000000    -0.554279   
O88      O      0.820800000000     0.637180000000     0.209480000000    -0.554612   
O89      O      0.535150000000     0.022760000000     0.533130000000    -0.557487   
O90      O      0.516990000000     0.026420000000     0.408180000000    -0.540817   
O91      O      0.504230000000     0.046100000000     0.486790000000    -0.545404   
O92      O      0.547960000000     0.002910000000     0.454490000000    -0.554023   
O93      O      0.502890000000     0.957090000000     0.458920000000    -0.545583   
O94      O      0.459970000000     0.000010000000     0.495350000000    -0.560254   
O95      O      0.471910000000     0.980900000000     0.415110000000    -0.559362   
O96      O      0.491140000000     0.976070000000     0.539320000000    -0.556378   
O97      O      0.307750000000     0.154770000000     0.073590000000    -0.55663    
O98      O      0.313620000000     0.179410000000     0.197800000000    -0.55259    
O99      O      0.332370000000     0.210100000000     0.117190000000    -0.558034   
O100     O      0.289060000000     0.124400000000     0.154310000000    -0.550142   
O101     O      0.334650000000     0.124660000000     0.158220000000    -0.556328   
O102     O      0.378370000000     0.211480000000     0.125150000000    -0.555076   
O103     O      0.359020000000     0.179370000000     0.204130000000    -0.556372   
O104     O      0.354250000000     0.156960000000     0.079290000000    -0.557511   
O105     O      0.471510000000     0.491090000000     0.916210000000    -0.557274   
O106     O      0.490870000000     0.514130000000     0.040690000000    -0.557833   
O107     O      0.502700000000     0.545540000000     0.960870000000    -0.559177   
O108     O      0.459540000000     0.459370000000     0.995930000000    -0.55999    
O109     O      0.503710000000     0.457440000000     0.986810000000    -0.546075   
O110     O      0.547700000000     0.544580000000     0.955870000000    -0.554735   
O111     O      0.534780000000     0.511310000000     0.033950000000    -0.557924   
O112     O      0.516540000000     0.490470000000     0.908730000000    -0.554288   
O113     O      0.136400000000     0.823390000000     0.247890000000    -0.54395    
O114     O      0.154480000000     0.846950000000     0.372280000000    -0.558423   
O115     O      0.167000000000     0.878140000000     0.292060000000    -0.555869   
O116     O      0.123700000000     0.791930000000     0.327220000000    -0.549711   
O117     O      0.168580000000     0.790830000000     0.322450000000    -0.558829   
O118     O      0.211950000000     0.877080000000     0.286990000000    -0.555418   
O119     O      0.199280000000     0.845700000000     0.366540000000    -0.558368   
O120     O      0.181000000000     0.821930000000     0.242110000000    -0.557544   
O121     O      0.983450000000     0.511160000000     0.534720000000    -0.560509   
O122     O      0.979370000000     0.489780000000     0.409410000000    -0.554041   
O123     O      0.960210000000     0.457150000000     0.487900000000    -0.548002   
O124     O      0.002700000000     0.544020000000     0.456320000000    -0.556244   
O125     O      0.048790000000     0.545160000000     0.459650000000    -0.556686   
O126     O      0.006400000000     0.459180000000     0.496340000000    -0.555814   
O127     O      0.024960000000     0.490150000000     0.415960000000    -0.556867   
O128     O      0.030350000000     0.514390000000     0.540110000000    -0.543617   
O129     O      0.823300000000     0.182750000000     0.711700000000    -0.558164   
O130     O      0.803210000000     0.160600000000     0.587120000000    -0.5544     
O131     O      0.789730000000     0.128420000000     0.666690000000    -0.543518   
O132     O      0.836790000000     0.214760000000     0.632760000000    -0.55788    
O133     O      0.879840000000     0.210510000000     0.624720000000    -0.55582    
O134     O      0.832690000000     0.124130000000     0.658760000000    -0.55896    
O135     O      0.846190000000     0.156190000000     0.579710000000    -0.5571     
O136     O      0.866320000000     0.178380000000     0.704340000000    -0.555674   
O137     O      0.644990000000     0.846120000000     0.867240000000    -0.543665   
O138     O      0.640990000000     0.821870000000     0.743170000000    -0.555205   
O139     O      0.622230000000     0.791310000000     0.823840000000    -0.545908   
O140     O      0.663760000000     0.877010000000     0.786810000000    -0.556123   
O141     O      0.710350000000     0.879830000000     0.795880000000    -0.554879   
O142     O      0.668500000000     0.793010000000     0.828860000000    -0.556745   
O143     O      0.688050000000     0.825450000000     0.750040000000    -0.557254   
O144     O      0.690930000000     0.847490000000     0.874740000000    -0.559573   
O145     O      0.742730000000     0.086030000000     0.708950000000    -0.295479   
O146     O      0.909980000000     0.404210000000     0.490010000000    -0.296805   
O147     O      0.072590000000     0.738570000000     0.327320000000    -0.298568   
O148     O      0.578140000000     0.750960000000     0.873380000000    -0.295831   
O149     O      0.243420000000     0.083230000000     0.200680000000    -0.29875    
O150     O      0.501060000000     0.404370000000     0.988670000000    -0.296954   
O151     O      0.726740000000     0.859140000000     0.446780000000    -0.2958     
O152     O      0.616010000000     0.848650000000     0.936730000000    -0.293984   
O153     O      0.742130000000     0.656920000000     0.207690000000    -0.296734   
O154     O      0.498620000000     0.912260000000     0.410750000000    -0.296841   
O155     O      0.061910000000     0.534110000000     0.612640000000    -0.295508   
O156     O      0.062340000000     0.527140000000     0.112580000000    -0.295721   
O157     O      0.829540000000     0.573980000000     0.081950000000    -0.298097   
O158     O      0.283110000000     0.101290000000     0.765190000000    -0.295727   
O159     O      0.384460000000     0.231630000000     0.512360000000    -0.295369   
O160     O      0.501940000000     0.096650000000     0.490270000000    -0.296432   
O161     O      0.170420000000     0.431360000000     0.823120000000    -0.296787   
O162     O      0.244080000000     0.160850000000     0.698740000000    -0.300607   
O163     O      0.484020000000     0.434950000000     0.602850000000    -0.295709   
O164     O      0.533720000000     0.472690000000     0.337440000000    -0.295045   
O165     O      0.864950000000     0.141740000000     0.008880000000    -0.297209   
O166     O      0.805020000000     0.199260000000     0.282680000000    -0.29509    
O167     O      0.153360000000     0.385990000000     0.434770000000    -0.296517   
O168     O      0.202930000000     0.394150000000     0.169480000000    -0.295623   
O169     O      0.918680000000     0.261360000000     0.210030000000    -0.295194   
O170     O      0.419000000000     0.507410000000     0.413580000000    -0.298525   
O171     O      0.532420000000     0.058770000000     0.836360000000    -0.296944   
O172     O      0.528080000000     0.057990000000     0.335670000000    -0.294272   
O173     O      0.598500000000     0.001170000000     0.993200000000    -0.295035   
O174     O      0.202320000000     0.810620000000     0.669050000000    -0.296355   
O175     O      0.102440000000     0.815230000000     0.179560000000    -0.296395   
O176     O      0.264860000000     0.930770000000     0.825220000000    -0.297461   
O177     O      0.805560000000     0.604330000000     0.782440000000    -0.294495   
O178     O      0.864900000000     0.719480000000     0.506570000000    -0.297615   
O179     O      0.751240000000     0.572080000000     0.580580000000    -0.29464    
O180     O      0.071280000000     0.830030000000     0.793880000000    -0.297084   
V1       V      0.834930000000     0.637080000000     0.646910000000     1.40345    
V2       V      0.835710000000     0.686480000000     0.641430000000     1.39856    
V3       V      0.170730000000     0.810540000000     0.803720000000     1.40418    
V4       V      0.168130000000     0.858150000000     0.810530000000     1.40143    
V5       V      0.502030000000     0.976010000000     0.976400000000     1.3997     
V6       V      0.503420000000     0.025770000000     0.971630000000     1.40268    
V7       V      0.168130000000     0.312180000000     0.310890000000     1.38853    
V8       V      0.170670000000     0.362360000000     0.303780000000     1.41241    
V9       V      0.836080000000     0.146630000000     0.143560000000     1.39457    
V10      V      0.833690000000     0.194450000000     0.147530000000     1.40726    
V11      V      0.502530000000     0.475000000000     0.471750000000     1.40771    
V12      V      0.502820000000     0.524150000000     0.477670000000     1.39815    
V13      V      0.195800000000     0.360590000000     0.804020000000     1.39624    
V14      V      0.147310000000     0.311130000000     0.810750000000     1.40168    
V15      V      0.359190000000     0.189780000000     0.643010000000     1.39941    
V16      V      0.309480000000     0.141930000000     0.634140000000     1.40584    
V17      V      0.029490000000     0.526050000000     0.978380000000     1.39832    
V18      V      0.979850000000     0.477710000000     0.972110000000     1.40135    
V19      V      0.694620000000     0.857270000000     0.311860000000     1.39587    
V20      V      0.644370000000     0.809570000000     0.306060000000     1.40111    
V21      V      0.856700000000     0.688000000000     0.140740000000     1.39213    
V22      V      0.809110000000     0.637810000000     0.147770000000     1.40901    
V23      V      0.527870000000     0.026370000000     0.470380000000     1.40243    
V24      V      0.479710000000     0.976710000000     0.477500000000     1.40448    
V25      V      0.308910000000     0.167150000000     0.135430000000     1.40214    
V26      V      0.358390000000     0.168140000000     0.141950000000     1.39404    
V27      V      0.479390000000     0.502570000000     0.978750000000     1.4009     
V28      V      0.527470000000     0.500910000000     0.971040000000     1.39738    
V29      V      0.143640000000     0.835170000000     0.310190000000     1.40912    
V30      V      0.191970000000     0.833830000000     0.304210000000     1.39405    
V31      V      0.979610000000     0.500470000000     0.471820000000     1.39838    
V32      V      0.029450000000     0.502270000000     0.478280000000     1.40304    
V33      V      0.811540000000     0.171760000000     0.649830000000     1.40409    
V34      V      0.857980000000     0.167160000000     0.641620000000     1.39261    
V35      V      0.641170000000     0.834000000000     0.804910000000     1.40963    
V36      V      0.691310000000     0.836540000000     0.812660000000     1.39041    


