data_structure

_audit_creation_method RASPA-1.0
_audit_creation_date 2023-5-19
_audit_author_name 'Poobodin Mano'

_cell_length_a    38.4692
_cell_length_b    38.4563
_cell_length_c    38.4874
_cell_angle_alpha 90
_cell_angle_beta  90
_cell_angle_gamma 90
_cell_volume      56937.6

_symmetry_cell_setting          triclinic
_symmetry_space_group_name_Hall 'P 1'
_symmetry_space_group_name_H-M  'P 1'
_symmetry_Int_Tables_number     1

_symmetry_equiv_pos_as_xyz 'x,y,z'

loop_
_atom_site_label
_atom_site_type_symbol
_atom_site_fract_x
_atom_site_fract_y
_atom_site_fract_z
_atom_site_charge
C1       C      0.006340000000     0.068120000000     0.493950000000     0.485459   
C2       C      0.004290000000     0.935800000000     0.496970000000     0.481496   
C3       C      0.938620000000     0.003700000000     0.495910000000     0.484437   
C4       C      0.070710000000     0.001030000000     0.495090000000     0.48439    
C5       C      0.995510000000     0.436080000000     0.501020000000     0.481124   
C6       C      0.994270000000     0.567980000000     0.508290000000     0.481278   
C7       C      0.994330000000     0.506600000000     0.438720000000     0.481322   
C8       C      0.995120000000     0.497350000000     0.570600000000     0.481261   
C9       C      0.570960000000     0.004750000000     0.502610000000     0.481406   
C10      C      0.439240000000     0.007850000000     0.493440000000     0.48289    
C11      C      0.500020000000     0.007950000000     0.564170000000     0.482214   
C12      C      0.509060000000     0.004860000000     0.432550000000     0.481616   
C13      C      0.500430000000     0.999980000000     0.064300000000     0.483018   
C14      C      0.500560000000     0.005020000000     0.932400000000     0.48604    
C15      C      0.497660000000     0.069080000000     0.000210000000     0.484552   
C16      C      0.503380000000     0.936980000000     0.995690000000     0.484843   
C17      C      0.000940000000     0.499920000000     0.070150000000     0.483173   
C18      C      0.005850000000     0.498220000000     0.938260000000     0.483291   
C19      C      0.069470000000     0.498960000000     0.007630000000     0.48342    
C20      C      0.937360000000     0.498680000000     0.000800000000     0.483251   
C21      C      0.503290000000     0.437290000000     0.005150000000     0.480701   
C22      C      0.503390000000     0.569260000000     0.003950000000     0.4811     
C23      C      0.437370000000     0.503480000000     0.004450000000     0.48008    
C24      C      0.569400000000     0.503350000000     0.004670000000     0.479991   
C25      C      0.845440000000     0.470300000000     0.994900000000    -0.0798104  
C26      C      0.623150000000     0.500940000000     0.035410000000     0.0790884  
C27      C      0.623150000000     0.506580000000     0.974050000000     0.0793243  
C28      C      0.659460000000     0.500920000000     0.035870000000    -0.0969064  
C29      C      0.735150000000     0.528900000000     0.985420000000    -0.0330932  
C30      C      0.771490000000     0.528470000000     0.984980000000    -0.0343968  
C31      C      0.716560000000     0.504060000000     0.004700000000    -0.00718563 
C32      C      0.659450000000     0.507150000000     0.973640000000    -0.0966736  
C33      C      0.789910000000     0.502890000000     0.003430000000    -0.00387803 
C34      C      0.848250000000     0.531470000000     0.006540000000    -0.0925148  
C35      C      0.771320000000     0.478100000000     0.022780000000    -0.0344518  
C36      C      0.884410000000     0.529550000000     0.005310000000     0.0765188  
C37      C      0.881870000000     0.469000000000     0.992520000000     0.0566661  
C38      C      0.735000000000     0.478820000000     0.023600000000    -0.0326513  
C39      C      0.678010000000     0.504160000000     0.004760000000     0.0536699  
C40      C      0.828410000000     0.501540000000     0.001910000000     0.0490041  
C41      C      0.161420000000     0.470940000000     0.014360000000    -0.0801906  
C42      C      0.383680000000     0.500660000000     0.973690000000     0.0791749  
C43      C      0.383580000000     0.507400000000     0.034930000000     0.07918    
C44      C      0.347370000000     0.500730000000     0.973160000000    -0.0969489  
C45      C      0.271610000000     0.529720000000     0.022900000000    -0.0333797  
C46      C      0.235270000000     0.529330000000     0.023230000000    -0.0345954  
C47      C      0.290230000000     0.504510000000     0.004130000000    -0.00730365 
C48      C      0.347280000000     0.508080000000     0.035260000000    -0.096706   
C49      C      0.216890000000     0.503420000000     0.005210000000    -0.00419769 
C50      C      0.158510000000     0.531840000000     0.001380000000    -0.0928714  
C51      C      0.235520000000     0.478270000000     0.986370000000    -0.0345181  
C52      C      0.122340000000     0.529860000000     0.002560000000     0.0763674  
C53      C      0.125000000000     0.469610000000     0.016680000000     0.0565108  
C54      C      0.271830000000     0.478940000000     0.985660000000    -0.0327687  
C55      C      0.328770000000     0.504570000000     0.004160000000     0.0535714  
C56      C      0.178400000000     0.502060000000     0.006700000000     0.0489168  
C57      C      0.534470000000     0.845790000000     0.991640000000    -0.079985   
C58      C      0.506020000000     0.623340000000     0.034050000000     0.0792251  
C59      C      0.500360000000     0.622600000000     0.972690000000     0.0793942  
C60      C      0.506100000000     0.659660000000     0.034060000000    -0.0973139  
C61      C      0.477730000000     0.734370000000     0.982590000000    -0.0329667  
C62      C      0.477760000000     0.770680000000     0.981750000000    -0.0346026  
C63      C      0.502690000000     0.716290000000     0.002180000000    -0.00760581 
C64      C      0.499890000000     0.658880000000     0.971820000000    -0.0973272  
C65      C      0.503010000000     0.789580000000     0.000140000000    -0.00377585 
C66      C      0.473160000000     0.847160000000     0.002760000000    -0.0915296  
C67      C      0.527970000000     0.771520000000     0.019740000000    -0.0347116  
C68      C      0.474150000000     0.883290000000     0.001070000000     0.0772387  
C69      C      0.534870000000     0.882230000000     0.988940000000     0.0563315  
C70      C      0.527680000000     0.735200000000     0.020930000000    -0.0327298  
C71      C      0.502860000000     0.677790000000     0.002720000000     0.0538569  
C72      C      0.503580000000     0.828050000000     0.998480000000     0.0489172  
C73      C      0.467170000000     0.160850000000     0.001140000000    -0.0800397  
C74      C      0.500890000000     0.383760000000     0.036270000000     0.0795957  
C75      C      0.505130000000     0.383350000000     0.974800000000     0.0798547  
C76      C      0.500380000000     0.347450000000     0.036930000000    -0.0968009  
C77      C      0.525250000000     0.271240000000     0.985090000000    -0.0327971  
C78      C      0.524470000000     0.234920000000     0.984820000000    -0.0341847  
C79      C      0.501990000000     0.290130000000     0.005970000000    -0.0070396  
C80      C      0.505000000000     0.347060000000     0.974560000000    -0.0967459  
C81      C      0.500220000000     0.216750000000     0.005200000000    -0.00362304 
C82      C      0.529230000000     0.158640000000     0.005590000000    -0.0926227  
C83      C      0.477010000000     0.235630000000     0.026170000000    -0.0342341  
C84      C      0.527570000000     0.122520000000     0.004170000000     0.0770562  
C85      C      0.465850000000     0.124350000000     0.999120000000     0.0570354  
C86      C      0.477990000000     0.271950000000     0.026660000000    -0.0321124  
C87      C      0.502510000000     0.328690000000     0.005850000000     0.0541632  
C88      C      0.498860000000     0.178210000000     0.004210000000     0.0496739  
C89      C      0.489450000000     0.038130000000     0.654830000000    -0.0779872  
C90      C      0.531190000000     0.008030000000     0.878660000000     0.0850589  
C91      C      0.469720000000     0.003760000000     0.878780000000     0.084633   
C92      C      0.531540000000     0.008550000000     0.842370000000    -0.0941357  
C93      C      0.525740000000     0.989340000000     0.766100000000    -0.0327029  
C94      C      0.525330000000     0.989710000000     0.729780000000    -0.0340831  
C95      C      0.500030000000     0.007020000000     0.785170000000    -0.0059079  
C96      C      0.469140000000     0.004050000000     0.842540000000    -0.094413   
C97      C      0.499170000000     0.007690000000     0.711660000000    -0.00311658 
C98      C      0.506390000000     0.978110000000     0.654070000000    -0.0922037  
C99      C      0.473450000000     0.025300000000     0.730740000000    -0.0342398  
C100     C      0.505730000000     0.978890000000     0.617890000000     0.0762434  
C101     C      0.488010000000     0.038210000000     0.618380000000     0.0562426  
C102     C      0.473940000000     0.025060000000     0.767020000000    -0.0317893  
C103     C      0.500270000000     0.006520000000     0.823810000000     0.0552662  
C104     C      0.498620000000     0.008030000000     0.673020000000     0.0480852  
C105     C      0.473190000000     0.990780000000     0.156230000000    -0.0783641  
C106     C      0.509200000000     0.034540000000     0.378240000000     0.0813698  
C107     C      0.511590000000     0.972970000000     0.379560000000     0.0798255  
C108     C      0.509000000000     0.034230000000     0.341960000000    -0.0946318  
C109     C      0.526460000000     0.026930000000     0.265530000000    -0.0324839  
C110     C      0.524850000000     0.026350000000     0.229250000000    -0.0340608  
C111     C      0.508940000000     0.001680000000     0.285340000000    -0.00632324 
C112     C      0.511700000000     0.971730000000     0.343310000000    -0.0959565  
C113     C      0.505830000000     0.000410000000     0.211880000000    -0.0030502  
C114     C      0.533140000000     0.007490000000     0.153170000000    -0.0920082  
C115     C      0.488560000000     0.975000000000     0.231700000000    -0.0343157  
C116     C      0.531000000000     0.006720000000     0.117060000000     0.0768895  
C117     C      0.471690000000     0.989170000000     0.119790000000     0.0570836  
C118     C      0.489980000000     0.975710000000     0.267940000000    -0.0316481  
C119     C      0.510080000000     0.002570000000     0.323980000000     0.0537577  
C120     C      0.503990000000     0.999800000000     0.173260000000     0.0488407  
C121     C      0.967930000000     0.488530000000     0.662640000000    -0.0787426  
C122     C      0.003790000000     0.528440000000     0.884280000000     0.0811946  
C123     C      0.008860000000     0.466990000000     0.884800000000     0.0844132  
C124     C      0.003060000000     0.528550000000     0.848000000000    -0.0964636  
C125     C      0.978340000000     0.515750000000     0.773520000000    -0.0318855  
C126     C      0.976730000000     0.515170000000     0.737250000000    -0.0343509  
C127     C      0.004140000000     0.496890000000     0.791210000000    -0.00673121 
C128     C      0.008730000000     0.466230000000     0.848490000000    -0.0944728  
C129     C      0.001180000000     0.496120000000     0.717940000000    -0.00374102 
C130     C      0.028890000000     0.501090000000     0.659390000000    -0.092922   
C131     C      0.027190000000     0.477520000000     0.735610000000    -0.0347336  
C132     C      0.026500000000     0.500920000000     0.623270000000     0.0753855  
C133     C      0.966190000000     0.487220000000     0.626180000000     0.055915   
C134     C      0.028490000000     0.477680000000     0.771920000000    -0.0330667  
C135     C      0.005480000000     0.497220000000     0.829710000000     0.0548918  
C136     C      0.999310000000     0.495450000000     0.679460000000     0.0483313  
C137     C      0.965540000000     0.515670000000     0.347380000000    -0.0776016  
C138     C      0.998670000000     0.470090000000     0.124440000000     0.0844811  
C139     C      0.001050000000     0.531660000000     0.123270000000     0.0813315  
C140     C      0.997980000000     0.470360000000     0.160760000000    -0.0937023  
C141     C      0.016100000000     0.477940000000     0.237250000000    -0.0323389  
C142     C      0.015390000000     0.479020000000     0.273570000000    -0.0340616  
C143     C      0.998140000000     0.502950000000     0.217510000000    -0.00594381 
C144     C      0.000600000000     0.532850000000     0.159520000000    -0.0955907  
C145     C      0.996800000000     0.505200000000     0.291070000000    -0.00257196 
C146     C      0.025600000000     0.499130000000     0.349300000000    -0.0915861  
C147     C      0.978940000000     0.530250000000     0.271300000000    -0.0345796  
C148     C      0.024270000000     0.500360000000     0.385480000000     0.0761582  
C149     C      0.964900000000     0.517720000000     0.383810000000     0.0564793  
C150     C      0.979500000000     0.529060000000     0.235040000000    -0.0318436  
C151     C      0.998950000000     0.502000000000     0.178820000000     0.0546042  
C152     C      0.995930000000     0.506410000000     0.329750000000     0.048134   
C153     C      0.348030000000     0.037070000000     0.483150000000    -0.078284   
C154     C      0.124160000000     0.999080000000     0.463900000000     0.0855436  
C155     C      0.124690000000     0.003240000000     0.525340000000     0.0814231  
C156     C      0.160450000000     0.999580000000     0.463080000000    -0.0932692  
C157     C      0.237480000000     0.986180000000     0.519400000000    -0.0326598  
C158     C      0.273790000000     0.987410000000     0.519080000000    -0.0341466  
C159     C      0.218030000000     0.003390000000     0.493670000000    -0.00577801 
C160     C      0.160980000000     0.003990000000     0.525450000000    -0.0954595  
C161     C      0.291560000000     0.005750000000     0.492940000000    -0.00285167 
C162     C      0.349600000000     0.977170000000     0.500350000000    -0.0924267  
C163     C      0.272120000000     0.022890000000     0.467170000000    -0.0335217  
C164     C      0.385770000000     0.978450000000     0.499710000000     0.0765333  
C165     C      0.384530000000     0.037680000000     0.481760000000     0.0596273  
C166     C      0.235820000000     0.021800000000     0.467580000000    -0.0312909  
C167     C      0.179370000000     0.002240000000     0.494080000000     0.0547449  
C168     C      0.330230000000     0.006750000000     0.492390000000     0.0488715  
C169     C      0.846060000000     0.007100000000     0.468930000000    -0.0800429  
C170     C      0.623900000000     0.972630000000     0.503540000000     0.079844   
C171     C      0.625320000000     0.034210000000     0.506570000000     0.0807024  
C172     C      0.660160000000     0.971290000000     0.504120000000    -0.0968313  
C173     C      0.737270000000     0.021490000000     0.529090000000    -0.0330059  
C174     C      0.773590000000     0.021270000000     0.528020000000    -0.0341551  
C175     C      0.717940000000     0.001230000000     0.505640000000    -0.00698134 
C176     C      0.661600000000     0.033770000000     0.507630000000    -0.095701   
C177     C      0.791240000000     0.001140000000     0.503180000000    -0.00392741 
C178     C      0.850150000000     0.999160000000     0.530560000000    -0.0924286  
C179     C      0.771910000000     0.980730000000     0.479870000000    -0.0342378  
C180     C      0.886250000000     0.000200000000     0.527790000000     0.0765423  
C181     C      0.882450000000     0.009200000000     0.466660000000     0.0573621  
C182     C      0.735630000000     0.980610000000     0.481220000000    -0.032325   
C183     C      0.679420000000     0.002090000000     0.506070000000     0.0540463  
C184     C      0.829690000000     0.002160000000     0.500890000000     0.0493491  
C185     C      0.005700000000     0.842780000000     0.471320000000    -0.0789197  
C186     C      0.963220000000     0.621640000000     0.507050000000     0.0815425  
C187     C      0.024610000000     0.621830000000     0.512510000000     0.079547   
C188     C      0.962660000000     0.657980000000     0.507000000000    -0.0945456  
C189     C      0.974920000000     0.733250000000     0.483670000000    -0.0322623  
C190     C      0.976270000000     0.769530000000     0.481890000000    -0.0342836  
C191     C      0.993860000000     0.715230000000     0.509180000000    -0.00665664 
C192     C      0.024930000000     0.658140000000     0.513050000000    -0.096243   
C193     C      0.996190000000     0.788560000000     0.505880000000    -0.00365633 
C194     C      0.995050000000     0.847960000000     0.532450000000    -0.0926317  
C195     C      0.014550000000     0.770590000000     0.531840000000    -0.0351103  
C196     C      0.997570000000     0.883990000000     0.529340000000     0.0754206  
C197     C      0.009320000000     0.879070000000     0.468780000000     0.0561777  
C198     C      0.013580000000     0.734270000000     0.533330000000    -0.0333888  
C199     C      0.993750000000     0.676650000000     0.509990000000     0.0536506  
C200     C      0.998630000000     0.826980000000     0.503180000000     0.0482011  
C201     C      0.009620000000     0.159860000000     0.464310000000    -0.0793195  
C202     C      0.026940000000     0.382730000000     0.501430000000     0.0801893  
C203     C      0.965460000000     0.381960000000     0.497120000000     0.0821374  
C204     C      0.027910000000     0.346440000000     0.501010000000    -0.0964812  
C205     C      0.017480000000     0.270580000000     0.522500000000    -0.0326447  
C206     C      0.018530000000     0.234260000000     0.521950000000    -0.0338198  
C207     C      0.997680000000     0.288930000000     0.497900000000    -0.00620437 
C208     C      0.965540000000     0.345620000000     0.496100000000    -0.0947677  
C209     C      0.000190000000     0.215580000000     0.496490000000    -0.00335093 
C210     C      0.997840000000     0.157460000000     0.525430000000    -0.092233   
C211     C      0.980390000000     0.233920000000     0.471870000000    -0.0333278  
C212     C      0.999980000000     0.121330000000     0.523940000000     0.0789739  
C213     C      0.012940000000     0.123450000000     0.463470000000     0.0607137  
C214     C      0.978930000000     0.270250000000     0.472740000000    -0.0318652  
C215     C      0.996990000000     0.327480000000     0.498300000000     0.0545242  
C216     C      0.002180000000     0.177090000000     0.495350000000     0.0506272  
H1       H      0.609830000000     0.508790000000     0.949330000000     0.0244739  
H2       H      0.898440000000     0.553510000000     0.010230000000     0.026009   
H3       H      0.721310000000     0.459240000000     0.038500000000     0.040608   
H4       H      0.785180000000     0.547730000000     0.969670000000     0.0411521  
H5       H      0.835930000000     0.556230000000     0.011920000000     0.0546532  
H6       H      0.721570000000     0.548780000000     0.970810000000     0.0398769  
H7       H      0.830090000000     0.447180000000     0.990130000000     0.0652983  
H8       H      0.672900000000     0.509380000000     0.949010000000     0.0563299  
H9       H      0.672920000000     0.498790000000     0.060500000000     0.0555602  
H10      H      0.784900000000     0.458230000000     0.037400000000     0.0420158  
H11      H      0.609820000000     0.498520000000     0.060110000000     0.0242417  
H12      H      0.900910000000     0.402780000000     0.026750000000     0.15012    
H13      H      0.396870000000     0.510020000000     0.059640000000     0.0243167  
H14      H      0.108280000000     0.553680000000     0.997110000000     0.0257476  
H15      H      0.285540000000     0.459070000000     0.971160000000     0.0406764  
H16      H      0.221540000000     0.548880000000     0.038140000000     0.0408583  
H17      H      0.170790000000     0.556500000000     0.995500000000     0.0542625  
H18      H      0.285170000000     0.549870000000     0.037160000000     0.0394823  
H19      H      0.176810000000     0.447970000000     0.019640000000     0.0654259  
H20      H      0.333790000000     0.510780000000     0.059820000000     0.0561134  
H21      H      0.333950000000     0.498190000000     0.948540000000     0.0550946  
H22      H      0.221960000000     0.458120000000     0.972110000000     0.0417451  
H23      H      0.397030000000     0.497760000000     0.949050000000     0.0240539  
H24      H      0.106120000000     0.402710000000     0.983760000000     0.149967   
H25      H      0.498120000000     0.608990000000     0.948120000000     0.0239504  
H26      H      0.449750000000     0.896680000000     0.005610000000     0.0376475  
H27      H      0.547350000000     0.721880000000     0.036050000000     0.0399878  
H28      H      0.458380000000     0.783970000000     0.966240000000     0.0414548  
H29      H      0.448690000000     0.834280000000     0.008100000000     0.0571956  
H30      H      0.458020000000     0.720410000000     0.968100000000     0.0394687  
H31      H      0.558000000000     0.830960000000     0.987310000000     0.0648655  
H32      H      0.497670000000     0.672020000000     0.947020000000     0.0556716  
H33      H      0.508210000000     0.673430000000     0.058530000000     0.0553136  
H34      H      0.547590000000     0.785500000000     0.034320000000     0.0414628  
H35      H      0.508410000000     0.610310000000     0.058910000000     0.0239225  
H36      H      0.599040000000     0.904350000000     0.024900000000     0.149021   
H37      H      0.506930000000     0.396500000000     0.949950000000     0.0246251  
H38      H      0.552210000000     0.108930000000     0.005820000000     0.0279692  
H39      H      0.459570000000     0.285840000000     0.042810000000     0.0411851  
H40      H      0.542490000000     0.221060000000     0.968200000000     0.0415173  
H41      H      0.554330000000     0.171140000000     0.008220000000     0.0553873  
H42      H      0.544230000000     0.284540000000     0.969110000000     0.0401816  
H43      H      0.443550000000     0.176040000000     0.999420000000     0.0670799  
H44      H      0.506330000000     0.333500000000     0.949930000000     0.0564657  
H45      H      0.498740000000     0.334180000000     0.061700000000     0.0558959  
H46      H      0.458220000000     0.222290000000     0.042340000000     0.0433273  
H47      H      0.499290000000     0.397260000000     0.060950000000     0.0244876  
H48      H      0.411910000000     0.098010000000     0.046670000000     0.154125   
H49      H      0.444990000000     0.001720000000     0.892130000000     0.0328523  
H50      H      0.512880000000     0.955060000000     0.604600000000     0.0249972  
H51      H      0.453970000000     0.039310000000     0.780830000000     0.0428328  
H52      H      0.545730000000     0.976140000000     0.715910000000     0.0406369  
H53      H      0.512880000000     0.953990000000     0.667080000000     0.0540627  
H54      H      0.545980000000     0.974840000000     0.779210000000     0.0414917  
H55      H      0.483150000000     0.061530000000     0.669120000000     0.066802   
H56      H      0.444380000000     0.001860000000     0.829330000000     0.058205   
H57      H      0.556200000000     0.010990000000     0.829010000000     0.0582053  
H58      H      0.452630000000     0.039010000000     0.717670000000     0.0448165  
H59      H      0.555990000000     0.009700000000     0.891940000000     0.0324807  
H60      H      0.422920000000     0.050020000000     0.580980000000     0.147842   
H61      H      0.512700000000     0.948450000000     0.393410000000     0.0242142  
H62      H      0.554400000000     0.013660000000     0.102960000000     0.0282812  
H63      H      0.475810000000     0.956090000000     0.282320000000     0.0406104  
H64      H      0.538210000000     0.046500000000     0.214830000000     0.0410857  
H65      H      0.557760000000     0.013940000000     0.165220000000     0.0551541  
H66      H      0.541650000000     0.047070000000     0.278010000000     0.0404723  
H67      H      0.450310000000     0.984780000000     0.171460000000     0.0670625  
H68      H      0.513230000000     0.946660000000     0.330580000000     0.0550655  
H69      H      0.507250000000     0.058720000000     0.328180000000     0.0584898  
H70      H      0.474100000000     0.954320000000     0.219220000000     0.0438172  
H71      H      0.507950000000     0.059640000000     0.391020000000     0.034939   
H72      H      0.456320000000     0.923360000000     0.085250000000     0.146916   
H73      H      0.011020000000     0.442370000000     0.898350000000     0.0346656  
H74      H      0.050210000000     0.506580000000     0.609120000000     0.0254975  
H75      H      0.048750000000     0.463080000000     0.784930000000     0.0401163  
H76      H      0.956530000000     0.529870000000     0.724250000000     0.0441971  
H77      H      0.053720000000     0.506470000000     0.671540000000     0.0539908  
H78      H      0.959100000000     0.530570000000     0.787770000000     0.0420095  
H79      H      0.945090000000     0.483030000000     0.678140000000     0.0675254  
H80      H      0.010460000000     0.441440000000     0.835230000000     0.0597166  
H81      H      0.000840000000     0.553100000000     0.834360000000     0.0554813  
H82      H      0.046210000000     0.462440000000     0.721330000000     0.0404414  
H83      H      0.001810000000     0.553330000000     0.897360000000     0.0244782  
H84      H      0.947350000000     0.422700000000     0.590950000000     0.148162   
H85      H      0.002430000000     0.556220000000     0.109520000000     0.0249261  
H86      H      0.047930000000     0.493580000000     0.399240000000     0.0258526  
H87      H      0.965000000000     0.548500000000     0.220750000000     0.0406287  
H88      H      0.029170000000     0.459120000000     0.287940000000     0.0417633  
H89      H      0.049950000000     0.492590000000     0.336770000000     0.0547807  
H90      H      0.031070000000     0.457690000000     0.224660000000     0.0425316  
H91      H      0.942290000000     0.521550000000     0.332660000000     0.066389   
H92      H      0.002010000000     0.557920000000     0.172270000000     0.0557602  
H93      H      0.996200000000     0.445860000000     0.174520000000     0.0592561  
H94      H      0.964750000000     0.551090000000     0.283830000000     0.0442039  
H95      H      0.997810000000     0.445020000000     0.111580000000     0.0353872  
H96      H      0.951890000000     0.583270000000     0.420060000000     0.14711    
H97      H      0.111580000000     0.004890000000     0.550220000000     0.0249091  
H98      H      0.399290000000     0.954780000000     0.506930000000     0.0253424  
H99      H      0.221710000000     0.035710000000     0.447600000000     0.0446385  
H100     H      0.287920000000     0.974190000000     0.539520000000     0.040117   
H101     H      0.336950000000     0.952890000000     0.506920000000     0.0540523  
H102     H      0.224680000000     0.971420000000     0.539660000000     0.0390941  
H103     H      0.333370000000     0.060240000000     0.476800000000     0.0681433  
H104     H      0.174460000000     0.006540000000     0.550020000000     0.0559316  
H105     H      0.173530000000     0.997550000000     0.438250000000     0.0606616  
H106     H      0.284930000000     0.036870000000     0.446370000000     0.0456727  
H107     H      0.110630000000     0.997030000000     0.439270000000     0.0409402  
H108     H      0.420880000000     0.050930000000     0.416460000000     0.147783   
H109     H      0.612570000000     0.059330000000     0.507440000000     0.0295568  
H110     H      0.900710000000     0.996800000000     0.551740000000     0.0262281  
H111     H      0.721370000000     0.964950000000     0.462670000000     0.0407906  
H112     H      0.787870000000     0.037430000000     0.546120000000     0.0414655  
H113     H      0.838360000000     0.995330000000     0.555830000000     0.0546978  
H114     H      0.724280000000     0.037430000000     0.548320000000     0.0408525  
H115     H      0.830180000000     0.010430000000     0.445940000000     0.0662534  
H116     H      0.675620000000     0.058170000000     0.508890000000     0.0581028  
H117     H      0.673030000000     0.946250000000     0.503200000000     0.0554287  
H118     H      0.784890000000     0.964820000000     0.460610000000     0.0426209  
H119     H      0.610020000000     0.948150000000     0.501930000000     0.0240385  
H120     H      0.902590000000     0.968900000000     0.404590000000     0.153681   
H121     H      0.049400000000     0.608580000000     0.514590000000     0.0241604  
H122     H      0.993560000000     0.898920000000     0.552910000000     0.0256682  
H123     H      0.028230000000     0.721050000000     0.553410000000     0.0393141  
H124     H      0.961710000000     0.782750000000     0.461750000000     0.0447787  
H125     H      0.989620000000     0.836640000000     0.557650000000     0.0542398  
H126     H      0.959700000000     0.719220000000     0.464580000000     0.0425373  
H127     H      0.009570000000     0.826520000000     0.448670000000     0.0671293  
H128     H      0.049560000000     0.671650000000     0.515120000000     0.0554274  
H129     H      0.937980000000     0.671380000000     0.504840000000     0.0589406  
H130     H      0.030300000000     0.784590000000     0.550510000000     0.0397465  
H131     H      0.938560000000     0.608220000000     0.504610000000     0.0375781  
H132     H      0.075580000000     0.908620000000     0.446480000000     0.147547   
H133     H      0.940510000000     0.395000000000     0.495680000000     0.0352891  
H134     H      0.995310000000     0.107500000000     0.548050000000     0.0267426  
H135     H      0.963630000000     0.283770000000     0.453360000000     0.0429583  
H136     H      0.034180000000     0.220780000000     0.541090000000     0.0417499  
H137     H      0.992110000000     0.169920000000     0.550020000000     0.0558707  
H138     H      0.031990000000     0.284340000000     0.542330000000     0.0405945  
H139     H      0.014090000000     0.175080000000     0.441070000000     0.0668909  
H140     H      0.941060000000     0.331810000000     0.494180000000     0.0594954  
H141     H      0.052780000000     0.333310000000     0.502430000000     0.0568572  
H142     H      0.965880000000     0.220110000000     0.452080000000     0.0447381  
H143     H      0.051540000000     0.396340000000     0.503510000000     0.0247106  
H144     H      0.979820000000     0.102470000000     0.396970000000     0.160461   
N1       N      0.901500000000     0.498630000000     0.999260000000    -0.197303   
N2       N      0.605090000000     0.503600000000     0.004710000000    -0.207959   
N3       N      0.105310000000     0.499050000000     0.009250000000    -0.197613   
N4       N      0.401690000000     0.503820000000     0.004360000000    -0.208084   
N5       N      0.504620000000     0.901130000000     0.994940000000    -0.196675   
N6       N      0.503280000000     0.604940000000     0.003580000000    -0.208517   
N7       N      0.496430000000     0.105000000000     0.001100000000    -0.197167   
N8       N      0.503130000000     0.401610000000     0.005420000000    -0.208235   
N9       N      0.497600000000     0.008720000000     0.599870000000    -0.199074   
N10      N      0.500510000000     0.005670000000     0.896750000000    -0.205768   
N11      N      0.500580000000     0.998370000000     0.100110000000    -0.19797    
N12      N      0.510150000000     0.004130000000     0.396920000000    -0.207072   
N13      N      0.995460000000     0.494910000000     0.606390000000    -0.198163   
N14      N      0.006330000000     0.497870000000     0.902590000000    -0.206157   
N15      N      0.994140000000     0.508590000000     0.402950000000    -0.198406   
N16      N      0.000140000000     0.500520000000     0.105810000000    -0.206128   
N17      N      0.403460000000     0.008430000000     0.491330000000    -0.198191   
N18      N      0.106380000000     0.001010000000     0.494790000000    -0.205864   
N19      N      0.902720000000     0.004560000000     0.496270000000    -0.197148   
N20      N      0.606580000000     0.003870000000     0.504370000000    -0.207706   
N21      N      0.003960000000     0.899890000000     0.497880000000    -0.197918   
N22      N      0.994010000000     0.603670000000     0.509440000000    -0.206066   
N23      N      0.006710000000     0.104010000000     0.493320000000    -0.196541   
N24      N      0.995950000000     0.400400000000     0.499750000000    -0.20641    
O1       O      0.005330000000     0.050630000000     0.465610000000    -0.533829   
O2       O      0.003670000000     0.952020000000     0.467900000000    -0.538833   
O3       O      0.955270000000     0.002150000000     0.467130000000    -0.53806    
O4       O      0.053820000000     0.000450000000     0.466280000000    -0.544106   
O5       O      0.054290000000     0.001920000000     0.524170000000    -0.553146   
O6       O      0.955580000000     0.003580000000     0.524740000000    -0.55281    
O7       O      0.004260000000     0.953220000000     0.525540000000    -0.552425   
O8       O      0.005820000000     0.052010000000     0.523270000000    -0.551624   
O9       O      0.966350000000     0.452430000000     0.501910000000    -0.545246   
O10      O      0.965430000000     0.551080000000     0.507440000000    -0.544188   
O11      O      0.965670000000     0.504620000000     0.455600000000    -0.538869   
O12      O      0.966280000000     0.498900000000     0.553980000000    -0.538207   
O13      O      0.023990000000     0.499130000000     0.553790000000    -0.553756   
O14      O      0.023430000000     0.505350000000     0.455210000000    -0.552327   
O15      O      0.023380000000     0.551560000000     0.507580000000    -0.554231   
O16      O      0.024300000000     0.453040000000     0.501680000000    -0.554545   
O17      O      0.555040000000     0.034130000000     0.501110000000    -0.556344   
O18      O      0.456630000000     0.036270000000     0.494420000000    -0.529857   
O19      O      0.502440000000     0.036320000000     0.546860000000    -0.538366   
O20      O      0.508940000000     0.034190000000     0.448580000000    -0.550531   
O21      O      0.507580000000     0.976230000000     0.449770000000    -0.554924   
O22      O      0.501190000000     0.978560000000     0.548200000000    -0.554435   
O23      O      0.455230000000     0.978550000000     0.495730000000    -0.555079   
O24      O      0.553630000000     0.976170000000     0.502080000000    -0.556067   
O25      O      0.529340000000     0.002470000000     0.047660000000    -0.553455   
O26      O      0.529510000000     0.005800000000     0.949070000000    -0.546959   
O27      O      0.527260000000     0.053470000000     0.999920000000    -0.556794   
O28      O      0.531410000000     0.954950000000     0.996820000000    -0.535691   
O29      O      0.473770000000     0.952530000000     0.996470000000    -0.550495   
O30      O      0.469700000000     0.051000000000     0.999960000000    -0.53671    
O31      O      0.471620000000     0.003400000000     0.949010000000    -0.552611   
O32      O      0.471690000000     0.000010000000     0.047460000000    -0.536182   
O33      O      0.001380000000     0.470680000000     0.053910000000    -0.545707   
O34      O      0.005600000000     0.469420000000     0.955250000000    -0.545933   
O35      O      0.052670000000     0.470210000000     0.006700000000    -0.540658   
O36      O      0.954240000000     0.470000000000     0.002460000000    -0.54014    
O37      O      0.953980000000     0.527730000000     0.001750000000    -0.552369   
O38      O      0.052750000000     0.527930000000     0.005910000000    -0.552507   
O39      O      0.005180000000     0.527380000000     0.954570000000    -0.554888   
O40      O      0.001490000000     0.528640000000     0.053070000000    -0.554595   
O41      O      0.502640000000     0.454200000000     0.033980000000    -0.556129   
O42      O      0.504060000000     0.552900000000     0.033080000000    -0.556659   
O43      O      0.453990000000     0.504320000000     0.033440000000    -0.555634   
O44      O      0.552710000000     0.502850000000     0.033620000000    -0.555785   
O45      O      0.552770000000     0.503710000000     0.975680000000    -0.556448   
O46      O      0.454080000000     0.502410000000     0.975530000000    -0.55654    
O47      O      0.502770000000     0.552330000000     0.975160000000    -0.558158   
O48      O      0.504030000000     0.453700000000     0.976050000000    -0.557123   
O49      O      0.927760000000     0.436880000000     0.945450000000    -0.159492   
O50      O      0.919630000000     0.407860000000     0.009820000000    -0.262454   
O51      O      0.868800000000     0.403690000000     0.961210000000    -0.176694   
O52      O      0.079140000000     0.438330000000     0.064360000000    -0.159831   
O53      O      0.087380000000     0.408040000000     0.000580000000    -0.262543   
O54      O      0.138180000000     0.404960000000     0.049300000000    -0.176498   
O55      O      0.567050000000     0.927970000000     0.941750000000    -0.161808   
O56      O      0.594110000000     0.922430000000     0.007250000000    -0.265477   
O57      O      0.601610000000     0.870570000000     0.960170000000    -0.179024   
O58      O      0.423780000000     0.082180000000     0.956610000000    -0.158983   
O59      O      0.412150000000     0.081670000000     0.026770000000    -0.253357   
O60      O      0.394150000000     0.137030000000     0.987360000000    -0.175297   
O61      O      0.500540000000     0.099830000000     0.580980000000    -0.157386   
O62      O      0.440230000000     0.064390000000     0.568440000000    -0.247173   
O63      O      0.449140000000     0.099830000000     0.628290000000    -0.174013   
O64      O      0.409740000000     0.002980000000     0.083430000000    -0.153294   
O65      O      0.442170000000     0.940640000000     0.072440000000    -0.260879   
O66      O      0.408640000000     0.953470000000     0.132650000000    -0.176947   
O67      O      0.904740000000     0.504520000000     0.590470000000    -0.160445   
O68      O      0.933980000000     0.440820000000     0.578460000000    -0.25914    
O69      O      0.901550000000     0.454520000000     0.639090000000    -0.175963   
O70      O      0.902780000000     0.505190000000     0.420320000000    -0.160235   
O71      O      0.937440000000     0.566040000000     0.432590000000    -0.26022    
O72      O      0.903160000000     0.555920000000     0.372280000000    -0.177767   
O73      O      0.421710000000     0.099310000000     0.494930000000    -0.145276   
O74      O      0.433560000000     0.065190000000     0.433740000000    -0.259771   
O75      O      0.373610000000     0.100030000000     0.444320000000    -0.174861   
O76      O      0.926080000000     0.054570000000     0.429460000000    -0.153093   
O77      O      0.920500000000     0.987230000000     0.407190000000    -0.251747   
O78      O      0.867720000000     0.033050000000     0.398560000000    -0.175045   
O79      O      0.992220000000     0.915330000000     0.407600000000    -0.153114   
O80      O      0.057950000000     0.922420000000     0.433770000000    -0.257505   
O81      O      0.037860000000     0.862710000000     0.402940000000    -0.175755   
O82      O      0.061530000000     0.078540000000     0.432210000000    -0.15718    
O83      O      0.997050000000     0.084260000000     0.402850000000    -0.24972    
O84      O      0.044090000000     0.136520000000     0.398140000000    -0.173891   
S1       S      0.899740000000     0.429070000000     0.977200000000     0.278484   
S2       S      0.107210000000     0.429950000000     0.032790000000     0.278377   
S3       S      0.574690000000     0.901030000000     0.974470000000     0.277861   
S4       S      0.423730000000     0.106100000000     0.992420000000     0.279156   
S5       S      0.469490000000     0.075900000000     0.598810000000     0.278538   
S6       S      0.432740000000     0.971580000000     0.101880000000     0.277701   
S7       S      0.926290000000     0.471800000000     0.608350000000     0.278065   
S8       S      0.926730000000     0.536210000000     0.402460000000     0.277731   
S9       S      0.403560000000     0.075880000000     0.463700000000     0.27793    
S10      S      0.899390000000     0.021040000000     0.425180000000     0.279406   
S11      S      0.024310000000     0.895070000000     0.427950000000     0.278395   
S12      S      0.028950000000     0.105470000000     0.423890000000     0.279755   
V1       V      0.004490000000     0.001250000000     0.464460000000     1.47692    
V2       V      0.004970000000     0.002700000000     0.526750000000     1.37514    
V3       V      0.963650000000     0.501740000000     0.504770000000     1.45023    
V4       V      0.026080000000     0.502310000000     0.504530000000     1.38291    
V5       V      0.505860000000     0.037510000000     0.497710000000     1.45074    
V6       V      0.504380000000     0.975070000000     0.499020000000     1.38704    
V7       V      0.531690000000     0.004300000000     0.998380000000     1.41141    
V8       V      0.469410000000     0.001670000000     0.998240000000     1.44995    
V9       V      0.003470000000     0.467800000000     0.004610000000     1.45172    
V10      V      0.003360000000     0.530230000000     0.003790000000     1.3837     
V11      V      0.503350000000     0.503570000000     0.035830000000     1.39863    
V12      V      0.503430000000     0.503010000000     0.973310000000     1.40285    


