data_structure

_audit_creation_method RASPA-1.0
_audit_creation_date 2023-6-5
_audit_author_name 'Poobodin Mano'

_cell_length_a    62.8354
_cell_length_b    62.8329
_cell_length_c    37.947
_cell_angle_alpha 89.9543
_cell_angle_beta  90.0457
_cell_angle_gamma 119.907
_cell_volume      129869

_symmetry_cell_setting          triclinic
_symmetry_space_group_name_Hall 'P 1'
_symmetry_space_group_name_H-M  'P 1'
_symmetry_Int_Tables_number     1

_symmetry_equiv_pos_as_xyz 'x,y,z'

loop_
_atom_site_label
_atom_site_type_symbol
_atom_site_fract_x
_atom_site_fract_y
_atom_site_fract_z
_atom_site_charge
C1       C      0.845870000000     0.670670000000     0.575210000000     0.490151   
C2       C      0.824460000000     0.668290000000     0.704790000000     0.479266   
C3       C      0.789920000000     0.648150000000     0.623190000000     0.489315   
C4       C      0.880270000000     0.690830000000     0.656910000000     0.488      
C5       C      0.180030000000     0.840680000000     0.737790000000     0.490082   
C6       C      0.159180000000     0.821790000000     0.867580000000     0.490811   
C7       C      0.214730000000     0.854010000000     0.819270000000     0.478628   
C8       C      0.124340000000     0.808240000000     0.786270000000     0.480842   
C9       C      0.489380000000     0.987690000000     0.041370000000     0.490537   
C10      C      0.512620000000     0.995340000000     0.911940000000     0.480852   
C11      C      0.546030000000     0.013110000000     0.994590000000     0.488331   
C12      C      0.456060000000     0.969810000000     0.958640000000     0.489139   
C13      C      0.179990000000     0.331220000000     0.242930000000     0.489574   
C14      C      0.156910000000     0.325720000000     0.372380000000     0.490767   
C15      C      0.123680000000     0.308740000000     0.289540000000     0.481278   
C16      C      0.213260000000     0.348280000000     0.325900000000     0.478264   
C17      C      0.824640000000     0.156810000000     0.205980000000     0.48877    
C18      C      0.845740000000     0.174860000000     0.076110000000     0.487825   
C19      C      0.790120000000     0.140950000000     0.124120000000     0.478626   
C20      C      0.880290000000     0.190800000000     0.157820000000     0.48741    
C21      C      0.489720000000     0.485640000000     0.544260000000     0.488257   
C22      C      0.511140000000     0.504590000000     0.414670000000     0.489332   
C23      C      0.455090000000     0.470340000000     0.462490000000     0.488676   
C24      C      0.545270000000     0.519840000000     0.496270000000     0.477877   
C25      C      0.159600000000     0.333690000000     0.742930000000     0.478544   
C26      C      0.179160000000     0.331860000000     0.872430000000     0.479719   
C27      C      0.146590000000     0.355260000000     0.824440000000     0.489196   
C28      C      0.192250000000     0.310500000000     0.790970000000     0.479791   
C29      C      0.339750000000     0.158540000000     0.703880000000     0.493069   
C30      C      0.330220000000     0.171990000000     0.574090000000     0.488866   
C31      C      0.313200000000     0.188640000000     0.656550000000     0.488635   
C32      C      0.356920000000     0.142230000000     0.621250000000     0.491096   
C33      C      0.011820000000     0.498510000000     0.038480000000     0.493044   
C34      C      0.010160000000     0.516850000000     0.908340000000     0.49321    
C35      C      0.990990000000     0.533050000000     0.989370000000     0.483872   
C36      C      0.030740000000     0.482320000000     0.957440000000     0.48056    
C37      C      0.671740000000     0.845240000000     0.243340000000     0.490729   
C38      C      0.674140000000     0.826720000000     0.373140000000     0.479587   
C39      C      0.694360000000     0.812150000000     0.291670000000     0.480682   
C40      C      0.651520000000     0.859710000000     0.324920000000     0.489717   
C41      C      0.851150000000     0.670070000000     0.204580000000     0.47979    
C42      C      0.833380000000     0.674820000000     0.075060000000     0.491386   
C43      C      0.867390000000     0.652510000000     0.122140000000     0.479012   
C44      C      0.817170000000     0.692190000000     0.157310000000     0.49002    
C45      C      0.492860000000     0.998450000000     0.411100000000     0.479593   
C46      C      0.511250000000     0.997340000000     0.541220000000     0.488829   
C47      C      0.477730000000     0.018970000000     0.491780000000     0.478957   
C48      C      0.526190000000     0.976780000000     0.460380000000     0.480239   
C49      C      0.337890000000     0.154590000000     0.074370000000     0.479802   
C50      C      0.340480000000     0.174480000000     0.204450000000     0.480601   
C51      C      0.317220000000     0.119100000000     0.155060000000     0.488606   
C52      C      0.360880000000     0.209820000000     0.123720000000     0.479576   
C53      C      0.493720000000     0.488420000000     0.914930000000     0.481393   
C54      C      0.511240000000     0.510740000000     0.044380000000     0.478901   
C55      C      0.525780000000     0.544710000000     0.962320000000     0.48905    
C56      C      0.479100000000     0.454550000000     0.997060000000     0.48975    
C57      C      0.181230000000     0.841390000000     0.367110000000     0.479941   
C58      C      0.166080000000     0.818890000000     0.237480000000     0.479652   
C59      C      0.150320000000     0.785160000000     0.319740000000     0.479507   
C60      C      0.197000000000     0.875160000000     0.284800000000     0.479188   
C61      C      0.003370000000     0.486250000000     0.408450000000     0.483893   
C62      C      0.010210000000     0.509390000000     0.537780000000     0.482836   
C63      C      0.984310000000     0.452830000000     0.490910000000     0.475426   
C64      C      0.029370000000     0.542780000000     0.455320000000     0.489005   
C65      C      0.825020000000     0.154020000000     0.576450000000     0.479408   
C66      C      0.845080000000     0.175570000000     0.705740000000     0.478449   
C67      C      0.859950000000     0.209790000000     0.623920000000     0.488687   
C68      C      0.810250000000     0.119800000000     0.658390000000     0.47885    
C69      C      0.663140000000     0.820180000000     0.742970000000     0.490883   
C70      C      0.669680000000     0.842800000000     0.872570000000     0.480309   
C71      C      0.645890000000     0.786570000000     0.825520000000     0.480701   
C72      C      0.686810000000     0.876460000000     0.790190000000     0.489249   
C73      C      0.696420000000     0.936740000000     0.761180000000    -0.168368   
C74      C      0.808810000000     0.082290000000     0.673240000000     0.0773101  
C75      C      0.772830000000     0.085370000000     0.678090000000     0.07719    
C76      C      0.796380000000     0.058430000000     0.686580000000    -0.0974452  
C77      C      0.769960000000     0.015720000000     0.737190000000    -0.0384821  
C78      C      0.757900000000     0.992040000000     0.751320000000    -0.0295738  
C79      C      0.758520000000     0.022750000000     0.711540000000    -0.00574772 
C80      C      0.759780000000     0.061440000000     0.691300000000    -0.0968308  
C81      C      0.734120000000     0.974760000000     0.740020000000    -0.0200408  
C82      C      0.734800000000     0.937110000000     0.760460000000    -0.11647    
C83      C      0.722570000000     0.981890000000     0.714590000000    -0.029317   
C84      C      0.722790000000     0.913030000000     0.772990000000     0.0869386  
C85      C      0.684730000000     0.912470000000     0.773410000000     0.246196   
C86      C      0.734610000000     0.005650000000     0.700590000000    -0.0385041  
C87      C      0.771650000000     0.047800000000     0.696140000000     0.050683   
C88      C      0.721640000000     0.949270000000     0.754200000000     0.0824943  
C89      C      0.910420000000     0.269280000000     0.592580000000    -0.16885    
C90      C      0.947290000000     0.416590000000     0.506840000000     0.0764265  
C91      C      0.985180000000     0.416990000000     0.509270000000     0.0725194  
C92      C      0.934930000000     0.392590000000     0.519800000000    -0.0964485  
C93      C      0.911780000000     0.337660000000     0.530640000000    -0.0386919  
C94      C      0.899690000000     0.314020000000     0.544950000000    -0.0295287  
C95      C      0.935240000000     0.355210000000     0.542720000000    -0.00547493 
C96      C      0.973390000000     0.392970000000     0.522120000000    -0.0952523  
C97      C      0.910810000000     0.307320000000     0.571550000000    -0.0204688  
C98      C      0.872970000000     0.270740000000     0.594880000000    -0.117109   
C99      C      0.934300000000     0.324780000000     0.583530000000    -0.029618   
C100     C      0.860940000000     0.246840000000     0.608090000000     0.08691    
C101     C      0.897910000000     0.245270000000     0.605820000000     0.246208   
C102     C      0.946350000000     0.348470000000     0.569350000000    -0.0386284  
C103     C      0.947990000000     0.380510000000     0.527890000000     0.0495055  
C104     C      0.897930000000     0.282160000000     0.586630000000     0.0828236  
C105     C      0.078130000000     0.603460000000     0.424870000000    -0.169101   
C106     C      0.113220000000     0.749740000000     0.337750000000     0.0772765  
C107     C      0.150260000000     0.748460000000     0.335760000000     0.0773957  
C108     C      0.100590000000     0.725700000000     0.350570000000    -0.0967885  
C109     C      0.082450000000     0.681080000000     0.398000000000    -0.0381765  
C110     C      0.070740000000     0.657480000000     0.412500000000    -0.0300721  
C111     C      0.100200000000     0.687500000000     0.371360000000    -0.00579465 
C112     C      0.138220000000     0.724450000000     0.348670000000    -0.0969766  
C113     C      0.076600000000     0.639800000000     0.400840000000    -0.0201043  
C114     C      0.039250000000     0.602060000000     0.423060000000    -0.116339   
C115     C      0.094190000000     0.646140000000     0.374060000000    -0.029604   
C116     C      0.028090000000     0.578240000000     0.436640000000     0.0868891  
C117     C      0.066560000000     0.579670000000     0.438820000000     0.246754   
C118     C      0.105810000000     0.669680000000     0.359440000000    -0.0380509  
C119     C      0.113110000000     0.712800000000     0.356520000000     0.0506808  
C120     C      0.064490000000     0.614820000000     0.416550000000     0.0828858  
C121     C      0.539090000000     0.606330000000     0.934110000000    -0.169133   
C122     C      0.648650000000     0.751780000000     0.844280000000     0.0782978  
C123     C      0.609930000000     0.749680000000     0.842430000000     0.0782518  
C124     C      0.637820000000     0.727980000000     0.857990000000    -0.0966178  
C125     C      0.606380000000     0.672330000000     0.869040000000    -0.0384444  
C126     C      0.594700000000     0.648790000000     0.883800000000    -0.0292077  
C127     C      0.600820000000     0.690170000000     0.880920000000    -0.00552983 
C128     C      0.598570000000     0.725980000000     0.856370000000    -0.0972419  
C129     C      0.577330000000     0.642650000000     0.910930000000    -0.0200981  
C130     C      0.575910000000     0.603760000000     0.930870000000    -0.116293   
C131     C      0.572240000000     0.660740000000     0.923270000000    -0.0291782  
C132     C      0.562820000000     0.579750000000     0.943690000000     0.0868122  
C133     C      0.526450000000     0.582340000000     0.947240000000     0.246712   
C134     C      0.583760000000     0.684170000000     0.908350000000    -0.0385159  
C135     C      0.612560000000     0.714960000000     0.864700000000     0.0511479  
C136     C      0.564020000000     0.617310000000     0.925620000000     0.0827963  
C137     C      0.268800000000     0.057020000000     0.181090000000    -0.16876    
C138     C      0.234230000000     0.910820000000     0.267660000000     0.0770446  
C139     C      0.196860000000     0.911520000000     0.267390000000     0.0772142  
C140     C      0.246830000000     0.934800000000     0.254590000000    -0.0970296  
C141     C      0.269930000000     0.990310000000     0.244840000000    -0.0384213  
C142     C      0.281680000000     0.014080000000     0.230870000000    -0.0295282  
C143     C      0.246890000000     0.972410000000     0.232000000000    -0.00573134 
C144     C      0.208850000000     0.935420000000     0.254120000000    -0.0970767  
C145     C      0.270690000000     0.020440000000     0.203590000000    -0.0200006  
C146     C      0.308160000000     0.059600000000     0.184880000000    -0.116123   
C147     C      0.247820000000     0.002370000000     0.190400000000    -0.0294226  
C148     C      0.319130000000     0.083770000000     0.172730000000     0.0865141  
C149     C      0.280200000000     0.081210000000     0.168690000000     0.24638    
C150     C      0.236040000000     0.978670000000     0.204490000000    -0.0385337  
C151     C      0.234090000000     0.947290000000     0.247230000000     0.0505508  
C152     C      0.282720000000     0.045950000000     0.189540000000     0.0824713  
C153     C      0.430080000000     0.393870000000     0.027380000000    -0.168422   
C154     C      0.397620000000     0.246970000000     0.109800000000     0.0771018  
C155     C      0.359170000000     0.245350000000     0.106220000000     0.0774941  
C156     C      0.409600000000     0.271180000000     0.097610000000    -0.0972007  
C157     C      0.426480000000     0.315440000000     0.049190000000    -0.0383249  
C158     C      0.437740000000     0.339230000000     0.035410000000    -0.0295499  
C159     C      0.408320000000     0.308140000000     0.075310000000    -0.00575829 
C160     C      0.370570000000     0.269580000000     0.094230000000    -0.097193   
C161     C      0.431190000000     0.356330000000     0.047580000000    -0.0199711  
C162     C      0.468490000000     0.394300000000     0.025660000000    -0.116458   
C163     C      0.413070000000     0.349010000000     0.073840000000    -0.029327   
C164     C      0.479770000000     0.418340000000     0.013040000000     0.0873101  
C165     C      0.441890000000     0.418120000000     0.015060000000     0.246749   
C166     C      0.401720000000     0.325170000000     0.087460000000    -0.0384137  
C167     C      0.396040000000     0.282710000000     0.089420000000     0.0507499  
C168     C      0.443370000000     0.381770000000     0.033240000000     0.0826928  
C169     C      0.678820000000     0.808950000000     0.653850000000    -0.1697     
C170     C      0.691480000000     0.840560000000     0.430050000000     0.0773938  
C171     C      0.655600000000     0.801630000000     0.423690000000     0.0771938  
C172     C      0.690110000000     0.838110000000     0.466640000000    -0.0981825  
C173     C      0.667490000000     0.833970000000     0.539720000000    -0.0386912  
C174     C      0.664860000000     0.832500000000     0.576290000000    -0.0300576  
C175     C      0.668230000000     0.815160000000     0.520800000000    -0.00651643 
C176     C      0.653970000000     0.798360000000     0.460230000000    -0.0977846  
C177     C      0.663360000000     0.812400000000     0.594690000000    -0.021206   
C178     C      0.644270000000     0.815430000000     0.650730000000    -0.117853   
C179     C      0.664160000000     0.793580000000     0.575830000000    -0.0297947  
C180     C      0.644460000000     0.817030000000     0.687390000000     0.0874795  
C181     C      0.679050000000     0.811310000000     0.690580000000     0.247074   
C182     C      0.666280000000     0.794810000000     0.539060000000    -0.0385447  
C183     C      0.671010000000     0.817010000000     0.482070000000     0.0511938  
C184     C      0.661820000000     0.811740000000     0.633600000000     0.0835547  
C185     C      0.692620000000     0.869210000000     0.153720000000    -0.170453   
C186     C      0.650490000000     0.844170000000     0.925960000000     0.078254   
C187     C      0.692370000000     0.854860000000     0.926170000000     0.0783368  
C188     C      0.650830000000     0.846700000000     0.962560000000    -0.0957781  
C189     C      0.657380000000     0.861180000000     0.039400000000    -0.0380473  
C190     C      0.656900000000     0.861010000000     0.076260000000    -0.0299672  
C191     C      0.672790000000     0.854700000000     0.020920000000    -0.00532318 
C192     C      0.693530000000     0.858190000000     0.962630000000    -0.096251   
C193     C      0.672240000000     0.854960000000     0.095380000000    -0.0211037  
C194     C      0.650290000000     0.837400000000     0.151920000000    -0.117783   
C195     C      0.687980000000     0.849000000000     0.077260000000    -0.02941    
C196     C      0.650720000000     0.835120000000     0.188480000000     0.0879282  
C197     C      0.692400000000     0.867060000000     0.190450000000     0.248134   
C198     C      0.688060000000     0.848580000000     0.040490000000    -0.0378342  
C199     C      0.672450000000     0.853490000000     0.981590000000     0.0504476  
C200     C      0.671560000000     0.854180000000     0.134230000000     0.0844773  
C201     C      0.766220000000     0.700940000000     0.187510000000    -0.168259   
C202     C      0.731010000000     0.811740000000     0.277050000000     0.0788768  
C203     C      0.692520000000     0.775150000000     0.272460000000     0.0779366  
C204     C      0.742950000000     0.799750000000     0.263780000000    -0.0967716  
C205     C      0.759770000000     0.773880000000     0.212790000000    -0.0382427  
C206     C      0.771500000000     0.762070000000     0.198120000000    -0.0297753  
C207     C      0.741690000000     0.762250000000     0.238830000000    -0.00571209 
C208     C      0.703900000000     0.762550000000     0.259350000000    -0.0968866  
C209     C      0.765540000000     0.738390000000     0.209300000000    -0.0198176  
C210     C      0.803810000000     0.739660000000     0.187450000000    -0.11625    
C211     C      0.747320000000     0.726690000000     0.235210000000    -0.0294138  
C212     C      0.816020000000     0.727930000000     0.174370000000     0.0885039  
C213     C      0.778920000000     0.689590000000     0.174350000000     0.247268   
C214     C      0.735470000000     0.738460000000     0.249740000000    -0.0381749  
C215     C      0.729370000000     0.774940000000     0.254390000000     0.0512145  
C216     C      0.778640000000     0.726170000000     0.194470000000     0.082833   
C217     C      0.640470000000     0.909010000000     0.356090000000    -0.168942   
C218     C      0.527030000000     0.940440000000     0.445150000000     0.077455   
C219     C      0.563580000000     0.979080000000     0.442240000000     0.0779333  
C220     C      0.539320000000     0.928810000000     0.431870000000    -0.0974565  
C221     C      0.566240000000     0.913040000000     0.381010000000    -0.0387384  
C222     C      0.578570000000     0.901920000000     0.366060000000    -0.0294812  
C223     C      0.577340000000     0.930710000000     0.407720000000    -0.00573539 
C224     C      0.576470000000     0.968010000000     0.429140000000    -0.0970856  
C225     C      0.602240000000     0.908100000000     0.377610000000    -0.0203911  
C226     C      0.602360000000     0.870830000000     0.354200000000    -0.116585   
C227     C      0.613320000000     0.925810000000     0.404340000000    -0.029166   
C228     C      0.614870000000     0.859420000000     0.341010000000     0.0870842  
C229     C      0.652660000000     0.897080000000     0.343180000000     0.246581   
C230     C      0.601050000000     0.937040000000     0.419150000000    -0.0387014  
C231     C      0.564260000000     0.942640000000     0.423320000000     0.0508608  
C232     C      0.615160000000     0.895870000000     0.362270000000     0.0827249  
C233     C      0.032010000000     0.539480000000     0.818520000000    -0.171061   
C234     C      0.991420000000     0.512510000000     0.590490000000     0.0750174  
C235     C      0.032500000000     0.520660000000     0.591780000000     0.0782526  
C236     C      0.991680000000     0.515560000000     0.626970000000    -0.100035   
C237     C      0.998540000000     0.531330000000     0.703190000000    -0.041182   
C238     C      0.997800000000     0.531770000000     0.740020000000    -0.0334026  
C239     C      0.013020000000     0.523220000000     0.685750000000    -0.00332125 
C240     C      0.033610000000     0.524450000000     0.628140000000    -0.097346   
C241     C      0.011970000000     0.524720000000     0.760110000000    -0.0186231  
C242     C      0.989370000000     0.508480000000     0.816560000000    -0.121449   
C243     C      0.026820000000     0.517150000000     0.743020000000    -0.0297576  
C244     C      0.989450000000     0.506670000000     0.853220000000     0.0849638  
C245     C      0.031460000000     0.537810000000     0.855320000000     0.247621   
C246     C      0.027140000000     0.516130000000     0.706300000000    -0.0378585  
C247     C      0.012860000000     0.521350000000     0.646490000000     0.0532149  
C248     C      0.010960000000     0.524580000000     0.798930000000     0.0870372  
C249     C      0.028590000000     0.506470000000     0.132630000000    -0.169133   
C250     C      0.984460000000     0.481970000000     0.352520000000     0.0760263  
C251     C      0.019700000000     0.477620000000     0.357260000000     0.0795102  
C252     C      0.984540000000     0.479760000000     0.315930000000    -0.0998968  
C253     C      0.983100000000     0.466510000000     0.239230000000    -0.0410003  
C254     C      0.984790000000     0.468630000000     0.202540000000    -0.0324762  
C255     C      0.004390000000     0.476510000000     0.260220000000    -0.00265538 
C256     C      0.020090000000     0.474950000000     0.320760000000    -0.0967861  
C257     C      0.007820000000     0.480500000000     0.185780000000    -0.0169133  
C258     C      0.992220000000     0.467390000000     0.123910000000    -0.119411   
C259     C      0.029070000000     0.489480000000     0.206690000000    -0.0293109  
C260     C      0.993490000000     0.472400000000     0.087870000000     0.0855299  
C261     C      0.029560000000     0.510970000000     0.096390000000     0.249069   
C262     C      0.027390000000     0.487690000000     0.243380000000    -0.037711   
C263     C      0.002740000000     0.476620000000     0.299420000000     0.0539031  
C264     C      0.009710000000     0.484640000000     0.146940000000     0.0858928  
C265     C      0.982090000000     0.584180000000     0.018240000000    -0.167297   
C266     C      0.869050000000     0.616810000000     0.105770000000     0.0770265  
C267     C      0.905130000000     0.655860000000     0.103090000000     0.0765984  
C268     C      0.881680000000     0.605680000000     0.092040000000    -0.0975864  
C269     C      0.908810000000     0.590670000000     0.040790000000    -0.0385656  
C270     C      0.920940000000     0.579200000000     0.026360000000    -0.0304012  
C271     C      0.919880000000     0.608350000000     0.067490000000    -0.00622467 
C272     C      0.918370000000     0.645260000000     0.089520000000    -0.0972201  
C273     C      0.944390000000     0.585020000000     0.038420000000    -0.0199166  
C274     C      0.943260000000     0.546730000000     0.016970000000    -0.116376   
C275     C      0.955630000000     0.603000000000     0.064780000000    -0.0299261  
C276     C      0.955080000000     0.534430000000     0.004640000000     0.0861627  
C277     C      0.993540000000     0.571390000000     0.005810000000     0.241852   
C278     C      0.943530000000     0.614590000000     0.079080000000    -0.0383838  
C279     C      0.906550000000     0.619930000000     0.083370000000     0.0505705  
C280     C      0.956740000000     0.571870000000     0.024230000000     0.0812623  
C281     C      0.363940000000     0.166690000000     0.794430000000    -0.167924   
C282     C      0.317630000000     0.145100000000     0.018700000000     0.0773902  
C283     C      0.358830000000     0.153620000000     0.022680000000     0.0777503  
C284     C      0.318070000000     0.142900000000     0.982110000000    -0.098123   
C285     C      0.326160000000     0.126170000000     0.907080000000    -0.0390272  
C286     C      0.327200000000     0.126900000000     0.870260000000    -0.0293903  
C287     C      0.341220000000     0.147290000000     0.926780000000    -0.00630862 
C288     C      0.360080000000     0.152150000000     0.986110000000    -0.0986363  
C289     C      0.342870000000     0.148970000000     0.852400000000    -0.0197204  
C290     C      0.321220000000     0.135980000000     0.793900000000    -0.115837   
C291     C      0.358000000000     0.170040000000     0.872530000000    -0.0288264  
C292     C      0.321030000000     0.138460000000     0.757400000000     0.0886679  
C293     C      0.363060000000     0.169390000000     0.757900000000     0.248871   
C294     C      0.357360000000     0.169120000000     0.909300000000    -0.0385464  
C295     C      0.339620000000     0.146970000000     0.965540000000     0.051537   
C296     C      0.342760000000     0.150340000000     0.813110000000     0.0827921  
C297     C      0.310930000000     0.158280000000     0.481320000000    -0.170345   
C298     C      0.358210000000     0.178130000000     0.261120000000     0.0781645  
C299     C      0.322520000000     0.181680000000     0.255120000000     0.0785484  
C300     C      0.357290000000     0.179730000000     0.297690000000    -0.0980532  
C301     C      0.334770000000     0.200590000000     0.370020000000    -0.0387134  
C302     C      0.332740000000     0.199940000000     0.406800000000    -0.0300867  
C303     C      0.336150000000     0.181780000000     0.352030000000    -0.00634312 
C304     C      0.321350000000     0.183830000000     0.291640000000    -0.0973555  
C305     C      0.331440000000     0.180160000000     0.425890000000    -0.0210798  
C306     C      0.346670000000     0.198380000000     0.485420000000    -0.117577   
C307     C      0.332510000000     0.161250000000     0.407790000000    -0.029468   
C308     C      0.346080000000     0.195810000000     0.522020000000     0.0864408  
C309     C      0.310400000000     0.156380000000     0.518070000000     0.246657   
C310     C      0.335060000000     0.162160000000     0.371230000000    -0.0381728  
C311     C      0.338530000000     0.182260000000     0.313280000000     0.051714   
C312     C      0.329390000000     0.179180000000     0.464710000000     0.0835541  
C313     C      0.404720000000     0.129280000000     0.589190000000    -0.168861   
C314     C      0.440440000000     0.016830000000     0.510190000000     0.0767375  
C315     C      0.476670000000     0.055520000000     0.504640000000     0.0767166  
C316     C      0.427470000000     0.028130000000     0.522140000000    -0.097017   
C317     C      0.409370000000     0.055690000000     0.567560000000    -0.0381662  
C318     C      0.397680000000     0.067810000000     0.581430000000    -0.0293945  
C319     C      0.426230000000     0.066090000000     0.539660000000    -0.00569052 
C320     C      0.464290000000     0.067390000000     0.516590000000    -0.0970287  
C321     C      0.402700000000     0.090660000000     0.567840000000    -0.020041   
C322     C      0.365980000000     0.091780000000     0.591480000000    -0.115961   
C323     C      0.419270000000     0.100890000000     0.539650000000    -0.0293919  
C324     C      0.355180000000     0.104910000000     0.604650000000     0.0888599  
C325     C      0.393490000000     0.142040000000     0.602390000000     0.248554   
C326     C      0.430860000000     0.088730000000     0.525680000000    -0.0383132  
C327     C      0.439420000000     0.053710000000     0.525780000000     0.0503435  
C328     C      0.390960000000     0.104010000000     0.583160000000     0.0838056  
C329     C      0.134660000000     0.404340000000     0.853330000000    -0.169862   
C330     C      0.027250000000     0.444270000000     0.940050000000     0.0785345  
C331     C      0.066440000000     0.480100000000     0.942940000000     0.0796134  
C332     C      0.037760000000     0.430600000000     0.927920000000    -0.0964195  
C333     C      0.062860000000     0.410170000000     0.882030000000    -0.0379623  
C334     C      0.074110000000     0.397750000000     0.867720000000    -0.0297797  
C335     C      0.074680000000     0.428050000000     0.908390000000    -0.00534891 
C336     C      0.077530000000     0.467040000000     0.930610000000    -0.0959551  
C337     C      0.097520000000     0.403100000000     0.879200000000    -0.0203123  
C338     C      0.097580000000     0.365350000000     0.857890000000    -0.116745   
C339     C      0.109200000000     0.420690000000     0.905820000000    -0.0294274  
C340     C      0.110090000000     0.354030000000     0.844230000000     0.0869092  
C341     C      0.146680000000     0.392630000000     0.839210000000     0.24707    
C342     C      0.097880000000     0.432940000000     0.920350000000    -0.0378567  
C343     C      0.063190000000     0.442000000000     0.922680000000     0.0512225  
C344     C      0.110000000000     0.390730000000     0.863160000000     0.0833529  
C345     C      0.301990000000     0.238120000000     0.686060000000    -0.16925    
C346     C      0.191880000000     0.273400000000     0.776660000000     0.077321   
C347     C      0.228790000000     0.311540000000     0.771500000000     0.0776455  
C348     C      0.203500000000     0.261040000000     0.763590000000    -0.0970862  
C349     C      0.235960000000     0.238590000000     0.751670000000    -0.0383264  
C350     C      0.247550000000     0.226610000000     0.737030000000    -0.0294628  
C351     C      0.240730000000     0.261510000000     0.738580000000    -0.0056641  
C352     C      0.241000000000     0.299760000000     0.758430000000    -0.0969521  
C353     C      0.264230000000     0.237300000000     0.709050000000    -0.0202415  
C354     C      0.264260000000     0.199540000000     0.687770000000    -0.116985   
C355     C      0.268970000000     0.260170000000     0.695910000000    -0.0294163  
C356     C      0.276690000000     0.188050000000     0.674490000000     0.0867137  
C357     C      0.314030000000     0.226160000000     0.672770000000     0.246537   
C358     C      0.257330000000     0.272110000000     0.710460000000    -0.0381873  
C359     C      0.228300000000     0.274230000000     0.753910000000     0.050721   
C360     C      0.276950000000     0.224820000000     0.694000000000     0.0830777  
C361     C      0.487640000000     0.462140000000     0.633940000000    -0.170548   
C362     C      0.472090000000     0.486510000000     0.862340000000     0.0791574  
C363     C      0.504090000000     0.476950000000     0.860660000000     0.0786198  
C364     C      0.469440000000     0.484020000000     0.825760000000    -0.0952625  
C365     C      0.460950000000     0.469680000000     0.748760000000    -0.0379618  
C366     C      0.460200000000     0.469750000000     0.711890000000    -0.0293361  
C367     C      0.483170000000     0.476760000000     0.766690000000    -0.005084   
C368     C      0.501490000000     0.473670000000     0.824230000000    -0.0962395  
C369     C      0.481480000000     0.476310000000     0.692270000000    -0.0212024  
C370     C      0.475970000000     0.493180000000     0.635710000000    -0.117831   
C371     C      0.503530000000     0.482980000000     0.709860000000    -0.0294403  
C372     C      0.478530000000     0.495430000000     0.599130000000     0.0875128  
C373     C      0.489700000000     0.464440000000     0.597250000000     0.247453   
C374     C      0.504460000000     0.483500000000     0.746600000000    -0.0379485  
C375     C      0.484470000000     0.477860000000     0.806010000000     0.0507291  
C376     C      0.481110000000     0.476810000000     0.653420000000     0.0844595  
C377     C      0.528330000000     0.500520000000     0.323300000000    -0.168506   
C378     C      0.500080000000     0.520440000000     0.099590000000     0.0768476  
C379     C      0.533610000000     0.513150000000     0.096310000000     0.0772504  
C380     C      0.502610000000     0.522940000000     0.136180000000    -0.0978491  
C381     C      0.525270000000     0.539440000000     0.212060000000    -0.038894   
C382     C      0.525680000000     0.538520000000     0.248900000000    -0.0297767  
C383     C      0.521480000000     0.519120000000     0.191980000000    -0.00625182 
C384     C      0.536270000000     0.514960000000     0.132870000000    -0.0983346  
C385     C      0.521700000000     0.517020000000     0.266360000000    -0.0194291  
C386     C      0.512120000000     0.527950000000     0.325960000000    -0.114903   
C387     C      0.517750000000     0.496680000000     0.245840000000    -0.0292086  
C388     C      0.510080000000     0.524890000000     0.362480000000     0.0878098  
C389     C      0.525590000000     0.497350000000     0.359830000000     0.247815   
C390     C      0.517940000000     0.497840000000     0.209120000000    -0.0385082  
C391     C      0.520470000000     0.519580000000     0.153150000000     0.0511265  
C392     C      0.520950000000     0.515390000000     0.305670000000     0.0821277  
C393     C      0.848470000000     0.197480000000     0.985600000000    -0.167987   
C394     C      0.867430000000     0.176650000000     0.757090000000     0.0768943  
C395     C      0.835940000000     0.186890000000     0.761180000000     0.0773323  
C396     C      0.870750000000     0.178790000000     0.793590000000    -0.098192   
C397     C      0.853630000000     0.164260000000     0.871170000000    -0.0388048  
C398     C      0.853400000000     0.163780000000     0.907950000000    -0.029776   
C399     C      0.858130000000     0.185540000000     0.853030000000    -0.00639473 
C400     C      0.839210000000     0.189800000000     0.797630000000    -0.0979602  
C401     C      0.858230000000     0.184780000000     0.927530000000    -0.0198521  
C402     C      0.862500000000     0.168240000000     0.986040000000    -0.115941   
C403     C      0.863490000000     0.206340000000     0.909050000000    -0.0297096  
C404     C      0.858900000000     0.165850000000     0.022420000000     0.0875384  
C405     C      0.845460000000     0.195070000000     0.022240000000     0.246305   
C406     C      0.863120000000     0.206600000000     0.872190000000    -0.0390574  
C407     C      0.856380000000     0.185200000000     0.814190000000     0.0509835  
C408     C      0.856730000000     0.183760000000     0.966860000000     0.081558   
C409     C      0.821920000000     0.133910000000     0.296290000000    -0.167556   
C410     C      0.802740000000     0.153210000000     0.525170000000     0.0778523  
C411     C      0.834340000000     0.143120000000     0.520790000000     0.0784258  
C412     C      0.799540000000     0.151370000000     0.488650000000    -0.0978234  
C413     C      0.817010000000     0.166600000000     0.411250000000    -0.0382678  
C414     C      0.817240000000     0.167330000000     0.374460000000    -0.0295976  
C415     C      0.812350000000     0.145150000000     0.429050000000    -0.00606382 
C416     C      0.831180000000     0.140520000000     0.484290000000    -0.097216   
C417     C      0.812270000000     0.146410000000     0.354570000000    -0.0193156  
C418     C      0.808220000000     0.163390000000     0.296290000000    -0.115023   
C419     C      0.806830000000     0.124680000000     0.372730000000    -0.029346   
C420     C      0.811770000000     0.165900000000     0.259890000000     0.0885053  
C421     C      0.824910000000     0.136430000000     0.259670000000     0.247329   
C422     C      0.807200000000     0.124170000000     0.409570000000    -0.0385869  
C423     C      0.814010000000     0.145200000000     0.467870000000     0.0515057  
C424     C      0.813810000000     0.147660000000     0.315240000000     0.0821641  
C425     C      0.140350000000     0.303660000000     0.463790000000    -0.168086   
C426     C      0.169780000000     0.353380000000     0.686810000000     0.0770249  
C427     C      0.136660000000     0.312550000000     0.691960000000     0.0772143  
C428     C      0.166650000000     0.352630000000     0.650270000000    -0.0976536  
C429     C      0.142410000000     0.345080000000     0.575350000000    -0.0390123  
C430     C      0.141650000000     0.343540000000     0.538540000000    -0.0293376  
C431     C      0.146950000000     0.329040000000     0.595460000000    -0.00600935 
C432     C      0.133440000000     0.310970000000     0.655440000000    -0.0979296  
C433     C      0.146060000000     0.326320000000     0.521020000000    -0.019702   
C434     C      0.155150000000     0.347000000000     0.461550000000    -0.115454   
C435     C      0.150570000000     0.310270000000     0.541570000000    -0.0289605  
C436     C      0.157290000000     0.346270000000     0.425020000000     0.087518   
C437     C      0.143450000000     0.303580000000     0.427240000000     0.247252   
C438     C      0.150720000000     0.311450000000     0.578320000000    -0.0387428  
C439     C      0.148700000000     0.331070000000     0.634260000000     0.0510035  
C440     C      0.146900000000     0.325600000000     0.481660000000     0.0820282  
C441     C      0.183860000000     0.312670000000     0.152070000000    -0.167811   
C442     C      0.201970000000     0.352750000000     0.923670000000     0.078301   
C443     C      0.169270000000     0.311650000000     0.928120000000     0.0778954  
C444     C      0.205300000000     0.353920000000     0.960180000000    -0.0972267  
C445     C      0.187230000000     0.351070000000     0.038150000000    -0.0385402  
C446     C      0.187130000000     0.351180000000     0.074970000000    -0.0290443  
C447     C      0.192320000000     0.334810000000     0.019730000000    -0.00572281 
C448     C      0.172550000000     0.311990000000     0.964570000000    -0.0975144  
C449     C      0.192680000000     0.335360000000     0.094250000000    -0.0195727  
C450     C      0.196300000000     0.355510000000     0.153150000000    -0.115604   
C451     C      0.198580000000     0.319640000000     0.075440000000    -0.0289616  
C452     C      0.192750000000     0.353940000000     0.189580000000     0.0872707  
C453     C      0.181140000000     0.311760000000     0.188770000000     0.246304   
C454     C      0.198070000000     0.319150000000     0.038580000000    -0.0389643  
C455     C      0.190370000000     0.333440000000     0.980940000000     0.0513252  
C456     C      0.191260000000     0.334600000000     0.133620000000     0.0819044  
C457     C      0.940350000000     0.241460000000     0.187350000000    -0.167129   
C458     C      0.086390000000     0.273140000000     0.272800000000     0.0805591  
C459     C      0.089250000000     0.312200000000     0.270860000000     0.0788526  
C460     C      0.062570000000     0.262090000000     0.259280000000    -0.0966728  
C461     C      0.019940000000     0.247180000000     0.208900000000    -0.0314078  
C462     C      0.996270000000     0.235870000000     0.194740000000    -0.0364938  
C463     C      0.026820000000     0.264890000000     0.235620000000    -0.0089189  
C464     C      0.065360000000     0.301680000000     0.257510000000    -0.0969523  
C465     C      0.978820000000     0.241890000000     0.207090000000    -0.0160632  
C466     C      0.941470000000     0.203830000000     0.185670000000    -0.115536   
C467     C      0.985830000000     0.259880000000     0.233490000000    -0.0359496  
C468     C      0.917360000000     0.191750000000     0.173330000000     0.0862713  
C469     C      0.916110000000     0.228890000000     0.174870000000     0.245975   
C470     C      0.009590000000     0.271310000000     0.247530000000    -0.0311904  
C471     C      0.051850000000     0.276380000000     0.251130000000     0.053292   
C472     C      0.953270000000     0.228960000000     0.193090000000     0.0804786  
C473     C      0.392560000000     0.454860000000     0.435700000000    -0.168828   
C474     C      0.247730000000     0.344930000000     0.344830000000     0.0763892  
C475     C      0.250210000000     0.383830000000     0.343680000000     0.0769539  
C476     C      0.271440000000     0.355460000000     0.358880000000    -0.0970237  
C477     C      0.327320000000     0.387060000000     0.370490000000    -0.0385105  
C478     C      0.350910000000     0.399000000000     0.385160000000    -0.0293417  
C479     C      0.309230000000     0.392140000000     0.382770000000    -0.0058159  
C480     C      0.273780000000     0.394870000000     0.358000000000    -0.0974838  
C481     C      0.356830000000     0.416110000000     0.412620000000    -0.019867   
C482     C      0.396680000000     0.418980000000     0.431240000000    -0.11529    
C483     C      0.338400000000     0.420510000000     0.425580000000    -0.0294213  
C484     C      0.420760000000     0.432730000000     0.443690000000     0.0874971  
C485     C      0.416610000000     0.468160000000     0.448440000000     0.247194   
C486     C      0.314950000000     0.408770000000     0.410730000000    -0.0385891  
C487     C      0.284570000000     0.380640000000     0.366170000000     0.050515   
C488     C      0.382290000000     0.430050000000     0.426840000000     0.0827261  
C489     C      0.535190000000     0.018920000000     0.630640000000    -0.170697   
C490     C      0.514390000000     0.976580000000     0.858360000000     0.0791842  
C491     C      0.524010000000     0.018140000000     0.858440000000     0.0789041  
C492     C      0.516610000000     0.976990000000     0.821700000000    -0.0953514  
C493     C      0.530040000000     0.983840000000     0.744420000000    -0.0380831  
C494     C      0.529320000000     0.983350000000     0.707560000000    -0.0293324  
C495     C      0.523260000000     0.998810000000     0.763440000000    -0.00511355 
C496     C      0.527020000000     0.019400000000     0.821930000000    -0.096329   
C497     C      0.522420000000     0.998240000000     0.689000000000    -0.0213064  
C498     C      0.504770000000     0.976070000000     0.632600000000    -0.117943   
C499     C      0.516130000000     0.013540000000     0.707670000000    -0.0294597  
C500     C      0.502030000000     0.976430000000     0.596130000000     0.0877526  
C501     C      0.532420000000     0.018720000000     0.594030000000     0.247461   
C502     C      0.516260000000     0.013630000000     0.744430000000    -0.0380035  
C503     C      0.522630000000     0.998480000000     0.802800000000     0.0507563  
C504     C      0.521140000000     0.997590000000     0.650170000000     0.0844475  
C505     C      0.476570000000     0.002170000000     0.130320000000    -0.169771   
C506     C      0.506710000000     0.015530000000     0.354080000000     0.0777281  
C507     C      0.468090000000     0.979260000000     0.360490000000     0.0770178  
C508     C      0.504430000000     0.013890000000     0.317490000000    -0.0981812  
C509     C      0.501140000000     0.991100000000     0.244860000000    -0.038745   
C510     C      0.500020000000     0.988520000000     0.208300000000    -0.0299978  
C511     C      0.481990000000     0.991460000000     0.263370000000    -0.00660342 
C512     C      0.465010000000     0.977350000000     0.323910000000    -0.0978225  
C513     C      0.479920000000     0.986670000000     0.189480000000    -0.021364   
C514     C      0.484210000000     0.968360000000     0.133440000000    -0.117904   
C515     C      0.460720000000     0.987010000000     0.207950000000    -0.0299504  
C516     C      0.486250000000     0.968870000000     0.096820000000     0.0871881  
C517     C      0.479360000000     0.002730000000     0.093650000000     0.246614   
C518     C      0.461610000000     0.989090000000     0.244720000000    -0.0388207  
C519     C      0.483600000000     0.994450000000     0.302080000000     0.0511551  
C520     C      0.479710000000     0.985370000000     0.150560000000     0.0833469  
C521     C      0.606900000000     0.024540000000     0.024010000000    -0.168291   
C522     C      0.752520000000     0.139320000000     0.109100000000     0.076775   
C523     C      0.755560000000     0.103260000000     0.105530000000     0.0773645  
C524     C      0.728520000000     0.126650000000     0.096230000000    -0.0970588  
C525     C      0.685030000000     0.099250000000     0.047070000000    -0.0385065  
C526     C      0.661250000000     0.086720000000     0.033260000000    -0.0295034  
C527     C      0.692540000000     0.088250000000     0.072770000000    -0.00546132 
C528     C      0.731520000000     0.089990000000     0.092760000000    -0.0963416  
C529     C      0.644360000000     0.062900000000     0.044910000000    -0.0199567  
C530     C      0.606100000000     0.062340000000     0.024290000000    -0.116279   
C531     C      0.651950000000     0.051840000000     0.070500000000    -0.0292158  
C532     C      0.582030000000     0.049720000000     0.011750000000     0.0867292  
C533     C      0.582630000000     0.012240000000     0.011730000000     0.246215   
C534     C      0.675780000000     0.064350000000     0.084200000000    -0.0384164  
C535     C      0.717790000000     0.101740000000     0.087570000000     0.0505002  
C536     C      0.618850000000     0.049780000000     0.030780000000     0.0823944  
C537     C      0.183800000000     0.865620000000     0.648630000000    -0.17072    
C538     C      0.201980000000     0.843260000000     0.420550000000     0.0772413  
C539     C      0.169640000000     0.852340000000     0.420860000000     0.0776703  
C540     C      0.203960000000     0.845500000000     0.457180000000    -0.096629   
C541     C      0.211040000000     0.859300000000     0.534250000000    -0.0383421  
C542     C      0.211190000000     0.858710000000     0.571110000000    -0.030382   
C543     C      0.189040000000     0.852070000000     0.515630000000    -0.00576183 
C544     C      0.171530000000     0.855330000000     0.457390000000    -0.09666    
C545     C      0.189500000000     0.851460000000     0.590040000000    -0.0213902  
C546     C      0.193130000000     0.832920000000     0.646120000000    -0.117991   
C547     C      0.167670000000     0.844740000000     0.571800000000    -0.0295196  
C548     C      0.190380000000     0.830400000000     0.682640000000     0.0872593  
C549     C      0.181800000000     0.863190000000     0.685310000000     0.246944   
C550     C      0.167350000000     0.844770000000     0.535030000000    -0.0379595  
C551     C      0.188400000000     0.851290000000     0.476290000000     0.0502236  
C552     C      0.189290000000     0.850300000000     0.628820000000     0.0840713  
C553     C      0.149770000000     0.793630000000     0.955750000000    -0.169552   
C554     C      0.181070000000     0.814510000000     0.181930000000     0.0775731  
C555     C      0.141630000000     0.810690000000     0.185780000000     0.0774666  
C556     C      0.179110000000     0.812480000000     0.145310000000    -0.0979242  
C557     C      0.175690000000     0.829100000000     0.070630000000    -0.038586   
C558     C      0.174270000000     0.830130000000     0.034040000000    -0.0299559  
C559     C      0.156670000000     0.809880000000     0.089690000000    -0.00631903 
C560     C      0.138880000000     0.808120000000     0.149220000000    -0.0975889  
C561     C      0.154000000000     0.811740000000     0.015760000000    -0.0211388  
C562     C      0.156120000000     0.834500000000     0.960900000000    -0.117968   
C563     C      0.135130000000     0.792270000000     0.034690000000    -0.0295565  
C564     C      0.157040000000     0.836430000000     0.924280000000     0.0882013  
C565     C      0.151420000000     0.796260000000     0.919000000000     0.247141   
C566     C      0.136310000000     0.791500000000     0.071480000000    -0.0385114  
C567     C      0.158010000000     0.809630000000     0.128580000000     0.0512825  
C568     C      0.152860000000     0.813110000000     0.976970000000     0.0838317  
C569     C      0.394890000000     0.922010000000     0.928180000000    -0.168538   
C570     C      0.250400000000     0.890600000000     0.838260000000     0.0764065  
C571     C      0.251040000000     0.853240000000     0.835010000000     0.076595   
C572     C      0.274270000000     0.902650000000     0.851810000000    -0.096998   
C573     C      0.329630000000     0.925180000000     0.862830000000    -0.0385718  
C574     C      0.353070000000     0.936390000000     0.877890000000    -0.0294481  
C575     C      0.311470000000     0.901700000000     0.873840000000    -0.00576796 
C576     C      0.274820000000     0.864680000000     0.848750000000    -0.0972707  
C577     C      0.358830000000     0.924440000000     0.904480000000    -0.0198786  
C578     C      0.397320000000     0.961360000000     0.926320000000    -0.115796   
C579     C      0.340500000000     0.901070000000     0.915740000000    -0.0293935  
C580     C      0.421130000000     0.972030000000     0.939820000000     0.0877952  
C581     C      0.418710000000     0.933120000000     0.942010000000     0.247214   
C582     C      0.317140000000     0.889820000000     0.900530000000    -0.0385415  
C583     C      0.286620000000     0.889590000000     0.857720000000     0.0503376  
C584     C      0.383940000000     0.936090000000     0.919960000000     0.0826702  
C585     C      0.837850000000     0.697030000000     0.983930000000    -0.1688     
C586     C      0.814740000000     0.648170000000     0.760570000000     0.0773432  
C587     C      0.823180000000     0.689330000000     0.756210000000     0.0780373  
C588     C      0.812600000000     0.648750000000     0.797170000000    -0.0975454  
C589     C      0.797200000000     0.656100000000     0.872860000000    -0.0392358  
C590     C      0.798470000000     0.657440000000     0.909680000000    -0.0294962  
C591     C      0.817480000000     0.672240000000     0.852420000000    -0.00591749 
C592     C      0.821770000000     0.690720000000     0.792780000000    -0.0974483  
C593     C      0.820290000000     0.674560000000     0.926810000000    -0.0200207  
C594     C      0.809610000000     0.653640000000     0.986130000000    -0.115861   
C595     C      0.840540000000     0.690690000000     0.905950000000    -0.0289091  
C596     C      0.812920000000     0.654280000000     0.022570000000     0.0872718  
C597     C      0.841460000000     0.697020000000     0.020350000000     0.247338   
C598     C      0.839030000000     0.689710000000     0.869230000000    -0.0388734  
C599     C      0.816730000000     0.670380000000     0.813600000000     0.0510666  
C600     C      0.822370000000     0.675120000000     0.966090000000     0.0820079  
C601     C      0.849980000000     0.650530000000     0.485480000000    -0.167836   
C602     C      0.872400000000     0.690410000000     0.257000000000     0.0776504  
C603     C      0.840520000000     0.648830000000     0.259520000000     0.0782475  
C604     C      0.874700000000     0.691140000000     0.293640000000    -0.0981154  
C605     C      0.854330000000     0.687420000000     0.369800000000    -0.0386586  
C606     C      0.853480000000     0.687690000000     0.406540000000    -0.0290331  
C607     C      0.860180000000     0.671340000000     0.352390000000    -0.00603796 
C608     C      0.842770000000     0.648760000000     0.296150000000    -0.0972895  
C609     C      0.859020000000     0.672280000000     0.426830000000    -0.0197523  
C610     C      0.862010000000     0.693280000000     0.484690000000    -0.115549   
C611     C      0.865460000000     0.656580000000     0.409080000000    -0.0292531  
C612     C      0.858330000000     0.692330000000     0.521030000000     0.0880151  
C613     C      0.847130000000     0.650250000000     0.522120000000     0.24645    
C614     C      0.865720000000     0.655900000000     0.372230000000    -0.0392303  
C615     C      0.859590000000     0.670250000000     0.313530000000     0.0512997  
C616     C      0.857270000000     0.672100000000     0.466130000000     0.0819416  
C617     C      0.729410000000     0.637090000000     0.592700000000    -0.168151   
C618     C      0.582950000000     0.521550000000     0.511080000000     0.076229   
C619     C      0.580000000000     0.557670000000     0.513850000000     0.0766148  
C620     C      0.607140000000     0.534410000000     0.523220000000    -0.096709   
C621     C      0.661800000000     0.568450000000     0.532100000000    -0.0381772  
C622     C      0.685630000000     0.580940000000     0.545710000000    -0.0294014  
C623     C      0.643630000000     0.573310000000     0.544810000000    -0.00559347 
C624     C      0.604200000000     0.571120000000     0.525890000000    -0.0966468  
C625     C      0.691940000000     0.598700000000     0.572230000000    -0.0199097  
C626     C      0.729500000000     0.598930000000     0.594840000000    -0.116174   
C627     C      0.673900000000     0.603810000000     0.584680000000    -0.0295681  
C628     C      0.753480000000     0.611460000000     0.607700000000     0.0884432  
C629     C      0.753540000000     0.649270000000     0.605560000000     0.246969   
C630     C      0.650010000000     0.591210000000     0.571220000000    -0.0382104  
C631     C      0.618060000000     0.559500000000     0.531000000000     0.0501651  
C632     C      0.717240000000     0.611740000000     0.586860000000     0.08307    
C633     C      0.941990000000     0.738580000000     0.685480000000    -0.168588   
C634     C      0.088550000000     0.771450000000     0.768290000000     0.0789949  
C635     C      0.087550000000     0.808590000000     0.772140000000     0.0793363  
C636     C      0.064310000000     0.759050000000     0.756220000000    -0.096637   
C637     C      0.018770000000     0.741120000000     0.710940000000    -0.0314691  
C638     C      0.994950000000     0.729660000000     0.697180000000    -0.0367762  
C639     C      0.025890000000     0.759060000000     0.737470000000    -0.00900899 
C640     C      0.063370000000     0.796800000000     0.759900000000    -0.0965558  
C641     C      0.977760000000     0.736020000000     0.709390000000    -0.0166616  
C642     C      0.939060000000     0.699040000000     0.688690000000    -0.115931   
C643     C      0.984770000000     0.753790000000     0.736040000000    -0.0364054  
C644     C      0.915120000000     0.688380000000     0.675650000000     0.0857628  
C645     C      0.918090000000     0.727510000000     0.671970000000     0.245924   
C646     C      0.008500000000     0.765100000000     0.750010000000    -0.0311766  
C647     C      0.051440000000     0.771740000000     0.751520000000     0.0525987  
C648     C      0.952650000000     0.724370000000     0.694240000000     0.0808644  
H1       H      0.763060000000     0.095450000000     0.675310000000     0.0224154  
H2       H      0.733920000000     0.904480000000     0.777060000000     0.0197031  
H3       H      0.725420000000     0.010460000000     0.680610000000     0.0379478  
H4       H      0.767170000000     0.987350000000     0.771330000000     0.0350232  
H5       H      0.754300000000     0.945920000000     0.755060000000     0.0563656  
H6       H      0.788220000000     0.028630000000     0.746610000000     0.0375532  
H7       H      0.685650000000     0.945690000000     0.757330000000     0.080854   
H8       H      0.740670000000     0.053910000000     0.698490000000     0.0529237  
H9       H      0.806130000000     0.048350000000     0.689320000000     0.0520471  
H10      H      0.704420000000     0.968960000000     0.704880000000     0.035125   
H11      H      0.828000000000     0.089800000000     0.666480000000     0.0221966  
H12      H      0.652020000000     0.893510000000     0.757090000000     0.14892    
H13      H      0.004880000000     0.425950000000     0.505460000000     0.0257964  
H14      H      0.841520000000     0.238800000000     0.613700000000     0.0196396  
H15      H      0.964210000000     0.361630000000     0.579720000000     0.0371325  
H16      H      0.881750000000     0.300840000000     0.534790000000     0.0352213  
H17      H      0.862710000000     0.280230000000     0.591230000000     0.0566187  
H18      H      0.902850000000     0.342070000000     0.509780000000     0.0372906  
H19      H      0.929780000000     0.277570000000     0.586430000000     0.0809175  
H20      H      0.984170000000     0.384210000000     0.527350000000     0.0512441  
H21      H      0.915320000000     0.383810000000     0.524180000000     0.0514446  
H22      H      0.943210000000     0.320260000000     0.604310000000     0.034886   
H23      H      0.936470000000     0.425310000000     0.501380000000     0.0218239  
H24      H      0.917280000000     0.237520000000     0.635590000000     0.148212   
H25      H      0.169760000000     0.756820000000     0.330500000000     0.0219849  
H26      H      0.008390000000     0.569010000000     0.440580000000     0.0204087  
H27      H      0.119050000000     0.673840000000     0.338550000000     0.0379243  
H28      H      0.057460000000     0.653230000000     0.433370000000     0.0349359  
H29      H      0.027990000000     0.610170000000     0.416880000000     0.0572638  
H30      H      0.077950000000     0.694450000000     0.408200000000     0.0374684  
H31      H      0.097830000000     0.613030000000     0.420880000000     0.0807353  
H32      H      0.148740000000     0.715330000000     0.353210000000     0.0521586  
H33      H      0.081080000000     0.717290000000     0.355650000000     0.0522477  
H34      H      0.098790000000     0.632780000000     0.364100000000     0.0377187  
H35      H      0.102810000000     0.759060000000     0.333790000000     0.0222333  
H36      H      0.086180000000     0.574220000000     0.471400000000     0.148801   
H37      H      0.598380000000     0.757550000000     0.836710000000     0.0226173  
H38      H      0.572890000000     0.570010000000     0.946970000000     0.019862   
H39      H      0.579450000000     0.697690000000     0.918510000000     0.0380222  
H40      H      0.598840000000     0.635240000000     0.873320000000     0.0353601  
H41      H      0.595290000000     0.611640000000     0.925240000000     0.0567249  
H42      H      0.619320000000     0.676390000000     0.847740000000     0.0384392  
H43      H      0.529120000000     0.616070000000     0.930040000000     0.0810623  
H44      H      0.578900000000     0.716340000000     0.860610000000     0.052963   
H45      H      0.649290000000     0.720110000000     0.864160000000     0.0531321  
H46      H      0.559370000000     0.656850000000     0.944620000000     0.0350034  
H47      H      0.668340000000     0.761400000000     0.840090000000     0.0242128  
H48      H      0.501540000000     0.576980000000     0.979970000000     0.148889   
H49      H      0.177280000000     0.903010000000     0.272050000000     0.0222997  
H50      H      0.338930000000     0.093560000000     0.169910000000     0.0199398  
H51      H      0.218510000000     0.965150000000     0.193590000000     0.0377823  
H52      H      0.299100000000     0.027610000000     0.242010000000     0.035247   
H53      H      0.319640000000     0.051650000000     0.190480000000     0.0565933  
H54      H      0.278650000000     0.986100000000     0.266250000000     0.0376885  
H55      H      0.249070000000     0.047180000000     0.184650000000     0.0809491  
H56      H      0.198370000000     0.944570000000     0.249360000000     0.0526175  
H57      H      0.266350000000     0.943280000000     0.249490000000     0.0520524  
H58      H      0.239040000000     0.006460000000     0.168960000000     0.0349948  
H59      H      0.244750000000     0.901700000000     0.272460000000     0.0218637  
H60      H      0.261020000000     0.087040000000     0.135780000000     0.148457   
H61      H      0.339360000000     0.235780000000     0.109070000000     0.0225634  
H62      H      0.499330000000     0.427200000000     0.007960000000     0.0198724  
H63      H      0.388000000000     0.320180000000     0.107890000000     0.0378074  
H64      H      0.451320000000     0.344090000000     0.014830000000     0.0352187  
H65      H      0.479600000000     0.385800000000     0.030110000000     0.0565578  
H66      H      0.431690000000     0.302600000000     0.038900000000     0.0377156  
H67      H      0.410480000000     0.384610000000     0.032210000000     0.0808983  
H68      H      0.359390000000     0.277750000000     0.087980000000     0.0528459  
H69      H      0.429380000000     0.280820000000     0.094720000000     0.0521266  
H70      H      0.407880000000     0.361810000000     0.084300000000     0.0353079  
H71      H      0.408810000000     0.238710000000     0.115590000000     0.0218708  
H72      H      0.427950000000     0.436610000000     0.032750000000     0.149726   
H73      H      0.641650000000     0.787070000000     0.407660000000     0.0218096  
H74      H      0.630700000000     0.820320000000     0.699350000000     0.0194736  
H75      H      0.666830000000     0.780110000000     0.524940000000     0.0385365  
H76      H      0.664500000000     0.847330000000     0.590310000000     0.0352265  
H77      H      0.630640000000     0.817400000000     0.635810000000     0.0576087  
H78      H      0.668780000000     0.849750000000     0.526150000000     0.0380908  
H79      H      0.692560000000     0.805930000000     0.641220000000     0.0810883  
H80      H      0.638970000000     0.781780000000     0.471370000000     0.0529604  
H81      H      0.703760000000     0.852780000000     0.482820000000     0.0530742  
H82      H      0.663010000000     0.777910000000     0.589520000000     0.0375304  
H83      H      0.706360000000     0.857400000000     0.419250000000     0.0221063  
H84      H      0.711060000000     0.825270000000     0.709840000000     0.150359   
H85      H      0.709010000000     0.858250000000     0.912770000000     0.022285   
H86      H      0.633920000000     0.821400000000     0.200990000000     0.0197093  
H87      H      0.699740000000     0.842870000000     0.027570000000     0.0376697  
H88      H      0.644710000000     0.865790000000     0.089870000000     0.0360834  
H89      H      0.633650000000     0.825470000000     0.137460000000     0.0582975  
H90      H      0.645700000000     0.866480000000     0.025490000000     0.0376687  
H91      H      0.709320000000     0.882480000000     0.140510000000     0.0825795  
H92      H      0.710920000000     0.864280000000     0.975760000000     0.0521595  
H93      H      0.633920000000     0.842520000000     0.975770000000     0.0521438  
H94      H      0.699780000000     0.844010000000     0.091620000000     0.0384955  
H95      H      0.633240000000     0.838410000000     0.912500000000     0.0234707  
H96      H      0.712730000000     0.897020000000     0.214070000000     0.152796   
H97      H      0.672720000000     0.764950000000     0.275290000000     0.0222609  
H98      H      0.835600000000     0.739280000000     0.169930000000     0.0214885  
H99      H      0.721770000000     0.729130000000     0.270010000000     0.038226   
H100     H      0.785100000000     0.771450000000     0.177760000000     0.0353567  
H101     H      0.814280000000     0.759170000000     0.192790000000     0.0572988  
H102     H      0.764650000000     0.792040000000     0.203400000000     0.038637   
H103     H      0.746610000000     0.689950000000     0.191880000000     0.0806575  
H104     H      0.692720000000     0.743370000000     0.252270000000     0.0527155  
H105     H      0.762730000000     0.809900000000     0.260900000000     0.0533324  
H106     H      0.742530000000     0.708610000000     0.244840000000     0.0373889  
H107     H      0.742250000000     0.831020000000     0.283650000000     0.0247666  
H108     H      0.760150000000     0.663350000000     0.143040000000     0.149846   
H109     H      0.573660000000     0.998840000000     0.445730000000     0.0235355  
H110     H      0.604040000000     0.839910000000     0.335660000000     0.0197993  
H111     H      0.609950000000     0.950390000000     0.439960000000     0.0380487  
H112     H      0.569630000000     0.888660000000     0.345150000000     0.0347573  
H113     H      0.582790000000     0.859840000000     0.358830000000     0.0564357  
H114     H      0.548150000000     0.908080000000     0.371250000000     0.0375951  
H115     H      0.650940000000     0.928560000000     0.361210000000     0.0807785  
H116     H      0.595740000000     0.979380000000     0.422720000000     0.0530396  
H117     H      0.529300000000     0.909080000000     0.428300000000     0.0520782  
H118     H      0.631350000000     0.930710000000     0.414310000000     0.0350935  
H119     H      0.507660000000     0.929040000000     0.451060000000     0.0218661  
H120     H      0.685150000000     0.910730000000     0.360450000000     0.149451   
H121     H      0.048860000000     0.522840000000     0.578850000000     0.0216483  
H122     H      0.972400000000     0.493440000000     0.865720000000     0.0191711  
H123     H      0.038060000000     0.509190000000     0.694180000000     0.0376528  
H124     H      0.986310000000     0.537800000000     0.752840000000     0.0350214  
H125     H      0.972730000000     0.496700000000     0.802000000000     0.0579882  
H126     H      0.987780000000     0.537430000000     0.688510000000     0.0362769  
H127     H      0.048950000000     0.552240000000     0.805330000000     0.0825885  
H128     H      0.050690000000     0.529670000000     0.641670000000     0.0520673  
H129     H      0.975010000000     0.512580000000     0.639710000000     0.0514347  
H130     H      0.037700000000     0.511390000000     0.758170000000     0.0388346  
H131     H      0.974480000000     0.507620000000     0.576660000000     0.0214904  
H132     H      0.052160000000     0.567920000000     0.878360000000     0.150287   
H133     H      0.033790000000     0.476730000000     0.372620000000     0.0235949  
H134     H      0.979390000000     0.458440000000     0.071270000000     0.01982    
H135     H      0.044250000000     0.495850000000     0.258490000000     0.038537   
H136     H      0.967980000000     0.461620000000     0.187460000000     0.0346754  
H137     H      0.977530000000     0.450030000000     0.133550000000     0.0570741  
H138     H      0.965030000000     0.457340000000     0.251120000000     0.0370898  
H139     H      0.042270000000     0.520560000000     0.149480000000     0.0817616  
H140     H      0.034140000000     0.471890000000     0.309400000000     0.0530557  
H141     H      0.970890000000     0.481480000000     0.300720000000     0.0522733  
H142     H      0.047130000000     0.498280000000     0.194780000000     0.0373681  
H143     H      0.970350000000     0.484950000000     0.363960000000     0.0219483  
H144     H      0.041910000000     0.544550000000     0.085620000000     0.153723   
H145     H      0.914860000000     0.675590000000     0.106870000000     0.021588   
H146     H      0.943720000000     0.514880000000     0.999990000000     0.0195007  
H147     H      0.952430000000     0.628000000000     0.099830000000     0.0375876  
H148     H      0.911930000000     0.565820000000     0.005610000000     0.0341258  
H149     H      0.923650000000     0.536350000000     0.021570000000     0.0561624  
H150     H      0.890770000000     0.585800000000     0.030850000000     0.0371853  
H151     H      0.993100000000     0.603760000000     0.022850000000     0.0794077  
H152     H      0.937590000000     0.656930000000     0.083060000000     0.052066   
H153     H      0.871960000000     0.585960000000     0.088280000000     0.0520033  
H154     H      0.973530000000     0.607700000000     0.075040000000     0.0367382  
H155     H      0.849750000000     0.605040000000     0.111790000000     0.0220945  
H156     H      0.020410000000     0.590140000000     0.975450000000     0.149485   
H157     H      0.375210000000     0.158000000000     0.037670000000     0.0219181  
H158     H      0.303700000000     0.127150000000     0.744040000000     0.0198963  
H159     H      0.368960000000     0.185670000000     0.924130000000     0.0394038  
H160     H      0.315650000000     0.110130000000     0.855910000000     0.0345168  
H161     H      0.304210000000     0.123310000000     0.806900000000     0.056467   
H162     H      0.313690000000     0.109110000000     0.920210000000     0.0382587  
H163     H      0.381270000000     0.177570000000     0.807930000000     0.081243   
H164     H      0.377010000000     0.155320000000     0.973950000000     0.0536958  
H165     H      0.301930000000     0.138890000000     0.966780000000     0.053423   
H166     H      0.369900000000     0.187520000000     0.860040000000     0.0358153  
H167     H      0.300770000000     0.142420000000     0.030560000000     0.0218755  
H168     H      0.384890000000     0.201710000000     0.742090000000     0.154399   
H169     H      0.308490000000     0.182310000000     0.239250000000     0.0235621  
H170     H      0.360350000000     0.210900000000     0.536930000000     0.0204156  
H171     H      0.335910000000     0.147370000000     0.357860000000     0.0393213  
H172     H      0.331930000000     0.214710000000     0.420290000000     0.0352312  
H173     H      0.361190000000     0.214880000000     0.473350000000     0.0579374  
H174     H      0.335610000000     0.215900000000     0.355670000000     0.0380563  
H175     H      0.297060000000     0.143260000000     0.465820000000     0.0819186  
H176     H      0.306580000000     0.185770000000     0.302930000000     0.0538106  
H177     H      0.371010000000     0.178670000000     0.313730000000     0.0532015  
H178     H      0.331720000000     0.145910000000     0.422020000000     0.0383357  
H179     H      0.372860000000     0.175800000000     0.250180000000     0.0221121  
H180     H      0.278410000000     0.138800000000     0.537310000000     0.149175   
H181     H      0.495980000000     0.066860000000     0.498290000000     0.0223098  
H182     H      0.335670000000     0.094590000000     0.610250000000     0.0223353  
H183     H      0.443360000000     0.097050000000     0.503770000000     0.0375044  
H184     H      0.385170000000     0.059580000000     0.603370000000     0.0358473  
H185     H      0.354650000000     0.072210000000     0.587100000000     0.057907   
H186     H      0.405630000000     0.038440000000     0.579290000000     0.0375037  
H187     H      0.424250000000     0.139270000000     0.583700000000     0.0817763  
H188     H      0.474380000000     0.087180000000     0.519380000000     0.0522477  
H189     H      0.408160000000     0.016850000000     0.528360000000     0.0518889  
H190     H      0.423170000000     0.118260000000     0.528190000000     0.0357037  
H191     H      0.430500000000     0.996980000000     0.508020000000     0.0218307  
H192     H      0.407730000000     0.174510000000     0.584810000000     0.149869   
H193     H      0.078260000000     0.499490000000     0.948280000000     0.0264454  
H194     H      0.099760000000     0.334230000000     0.841340000000     0.0201911  
H195     H      0.107320000000     0.446190000000     0.941100000000     0.0383906  
H196     H      0.064780000000     0.384410000000     0.847010000000     0.0352709  
H197     H      0.078440000000     0.354180000000     0.865160000000     0.0576529  
H198     H      0.045160000000     0.406170000000     0.871790000000     0.0379209  
H199     H      0.144670000000     0.424130000000     0.856360000000     0.0813034  
H200     H      0.097200000000     0.476760000000     0.926550000000     0.0537452  
H201     H      0.025980000000     0.411200000000     0.922800000000     0.0527872  
H202     H      0.127080000000     0.424890000000     0.915590000000     0.0378843  
H203     H      0.007490000000     0.434730000000     0.943430000000     0.0230076  
H204     H      0.170630000000     0.411570000000     0.804970000000     0.149047   
H205     H      0.239300000000     0.331340000000     0.774220000000     0.0227197  
H206     H      0.266010000000     0.168360000000     0.670480000000     0.0198715  
H207     H      0.261080000000     0.289510000000     0.699290000000     0.0378247  
H208     H      0.243790000000     0.209170000000     0.748070000000     0.0353846  
H209     H      0.244770000000     0.188620000000     0.693030000000     0.0568777  
H210     H      0.223540000000     0.230060000000     0.773610000000     0.0374821  
H211     H      0.312430000000     0.257730000000     0.690670000000     0.0816625  
H212     H      0.260300000000     0.310640000000     0.751940000000     0.0529047  
H213     H      0.192900000000     0.241310000000     0.760280000000     0.0519599  
H214     H      0.281460000000     0.268720000000     0.674040000000     0.0355084  
H215     H      0.172570000000     0.262470000000     0.783290000000     0.0220256  
H216     H      0.339470000000     0.245390000000     0.640560000000     0.148808   
H217     H      0.517830000000     0.473980000000     0.873460000000     0.0219819  
H218     H      0.474850000000     0.508770000000     0.586550000000     0.0196657  
H219     H      0.522070000000     0.489720000000     0.759100000000     0.0373639  
H220     H      0.442970000000     0.464450000000     0.698690000000     0.0366007  
H221     H      0.470870000000     0.504830000000     0.650160000000     0.0584042  
H222     H      0.444060000000     0.463950000000     0.763080000000     0.0378686  
H223     H      0.491630000000     0.449220000000     0.647180000000     0.0822783  
H224     H      0.512980000000     0.468040000000     0.810550000000     0.0520629  
H225     H      0.456190000000     0.487750000000     0.813120000000     0.0530233  
H226     H      0.520230000000     0.488390000000     0.695110000000     0.0363048  
H227     H      0.460420000000     0.491780000000     0.876400000000     0.0258833  
H228     H      0.514860000000     0.459280000000     0.579180000000     0.148915   
H229     H      0.545990000000     0.509140000000     0.081610000000     0.0217931  
H230     H      0.502540000000     0.534540000000     0.376820000000     0.0220601  
H231     H      0.514650000000     0.481840000000     0.194060000000     0.0390389  
H232     H      0.529230000000     0.554730000000     0.263560000000     0.0343024  
H233     H      0.505930000000     0.539500000000     0.313770000000     0.0570954  
H234     H      0.528140000000     0.556070000000     0.199230000000     0.038156   
H235     H      0.536270000000     0.491260000000     0.309010000000     0.0804074  
H236     H      0.550360000000     0.512380000000     0.145290000000     0.0532244  
H237     H      0.490070000000     0.526510000000     0.151220000000     0.0533422  
H238     H      0.513940000000     0.479550000000     0.258000000000     0.0371304  
H239     H      0.485570000000     0.522480000000     0.087450000000     0.0220029  
H240     H      0.550640000000     0.493760000000     0.381940000000     0.148005   
H241     H      0.822000000000     0.190030000000     0.749420000000     0.0217394  
H242     H      0.863390000000     0.153340000000     0.035850000000     0.0195262  
H243     H      0.866770000000     0.223260000000     0.858610000000     0.037977   
H244     H      0.848700000000     0.146630000000     0.920890000000     0.0344465  
H245     H      0.869680000000     0.157790000000     0.973140000000     0.0562079  
H246     H      0.849440000000     0.147710000000     0.856840000000     0.0385557  
H247     H      0.843390000000     0.209440000000     0.972010000000     0.0796113  
H248     H      0.827750000000     0.194730000000     0.812900000000     0.0532209  
H249     H      0.884270000000     0.175190000000     0.805670000000     0.0525922  
H250     H      0.867830000000     0.223060000000     0.922940000000     0.0358015  
H251     H      0.878710000000     0.171320000000     0.742100000000     0.0217718  
H252     H      0.818540000000     0.198080000000     0.038310000000     0.148605   
H253     H      0.848280000000     0.139950000000     0.532450000000     0.0234117  
H254     H      0.807410000000     0.178550000000     0.246640000000     0.0209612  
H255     H      0.803410000000     0.107380000000     0.422890000000     0.0388005  
H256     H      0.822070000000     0.184580000000     0.361780000000     0.0352417  
H257     H      0.801170000000     0.173910000000     0.309380000000     0.0568425  
H258     H      0.821300000000     0.183090000000     0.425840000000     0.0391607  
H259     H      0.826900000000     0.121800000000     0.309700000000     0.0802365  
H260     H      0.842710000000     0.135750000000     0.468880000000     0.0541595  
H261     H      0.786010000000     0.155010000000     0.476670000000     0.0532019  
H262     H      0.802350000000     0.108010000000     0.358590000000     0.0366772  
H263     H      0.791380000000     0.158370000000     0.540280000000     0.0220011  
H264     H      0.851680000000     0.133260000000     0.243380000000     0.149345   
H265     H      0.124660000000     0.296430000000     0.707390000000     0.0221105  
H266     H      0.164230000000     0.363490000000     0.410920000000     0.0193886  
H267     H      0.154540000000     0.299080000000     0.593390000000     0.0390458  
H268     H      0.137590000000     0.355890000000     0.523920000000     0.0345871  
H269     H      0.160760000000     0.364550000000     0.473860000000     0.0560784  
H270     H      0.139320000000     0.358710000000     0.588160000000     0.038306   
H271     H      0.132940000000     0.286440000000     0.477920000000     0.0804998  
H272     H      0.119300000000     0.294050000000     0.643790000000     0.0537077  
H273     H      0.178790000000     0.368500000000     0.634530000000     0.0530664  
H274     H      0.154670000000     0.297160000000     0.529400000000     0.0350003  
H275     H      0.184330000000     0.370210000000     0.698170000000     0.021972   
H276     H      0.151480000000     0.279660000000     0.412450000000     0.151086   
H277     H      0.154870000000     0.294850000000     0.916510000000     0.0221636  
H278     H      0.196520000000     0.370620000000     0.203250000000     0.0196173  
H279     H      0.202170000000     0.306540000000     0.024760000000     0.0388799  
H280     H      0.181950000000     0.363180000000     0.088150000000     0.0353071  
H281     H      0.202820000000     0.373130000000     0.140500000000     0.0564926  
H282     H      0.182480000000     0.363130000000     0.024030000000     0.0398835  
H283     H      0.179370000000     0.295880000000     0.138240000000     0.0805039  
H284     H      0.160660000000     0.295850000000     0.980000000000     0.0539795  
H285     H      0.219310000000     0.370790000000     0.972150000000     0.0543204  
H286     H      0.203530000000     0.307590000000     0.089070000000     0.0347501  
H287     H      0.213730000000     0.369120000000     0.908520000000     0.0246772  
H288     H      0.188590000000     0.289360000000     0.211250000000     0.149637   
H289     H      0.099200000000     0.331900000000     0.274870000000     0.0228193  
H290     H      0.909080000000     0.172200000000     0.168510000000     0.0203249  
H291     H      0.014290000000     0.284730000000     0.268310000000     0.0379785  
H292     H      0.991700000000     0.222480000000     0.173950000000     0.0358894  
H293     H      0.950580000000     0.193280000000     0.190110000000     0.056397   
H294     H      0.032940000000     0.242180000000     0.198690000000     0.0379036  
H295     H      0.949010000000     0.261030000000     0.192130000000     0.0802026  
H296     H      0.057780000000     0.313410000000     0.251440000000     0.0536457  
H297     H      0.052600000000     0.242390000000     0.255320000000     0.0546818  
H298     H      0.972790000000     0.264740000000     0.243970000000     0.0385385  
H299     H      0.093970000000     0.261330000000     0.278450000000     0.0267524  
H300     H      0.908160000000     0.247970000000     0.144820000000     0.151362   
H301     H      0.242540000000     0.395580000000     0.338120000000     0.0220216  
H302     H      0.431170000000     0.423290000000     0.446340000000     0.022925   
H303     H      0.301230000000     0.412680000000     0.421210000000     0.0377867  
H304     H      0.364690000000     0.395340000000     0.374250000000     0.035661   
H305     H      0.389410000000     0.399730000000     0.425240000000     0.0574849  
H306     H      0.323450000000     0.374430000000     0.348830000000     0.0379079  
H307     H      0.382190000000     0.464260000000     0.432230000000     0.0807815  
H308     H      0.283510000000     0.414490000000     0.362670000000     0.0525763  
H309     H      0.279160000000     0.343830000000     0.364850000000     0.052232   
H310     H      0.342080000000     0.433100000000     0.447230000000     0.0350105  
H311     H      0.237990000000     0.325290000000     0.340220000000     0.0218745  
H312     H      0.421270000000     0.492540000000     0.481740000000     0.148989   
H313     H      0.527070000000     0.034630000000     0.871980000000     0.0222249  
H314     H      0.488780000000     0.959370000000     0.583660000000     0.0194515  
H315     H      0.510280000000     0.024930000000     0.757820000000     0.0375597  
H316     H      0.534360000000     0.971500000000     0.693520000000     0.0365595  
H317     H      0.493560000000     0.959240000000     0.647100000000     0.0583092  
H318     H      0.535980000000     0.972510000000     0.757880000000     0.0379241  
H319     H      0.548060000000     0.035840000000     0.643760000000     0.0820623  
H320     H      0.532550000000     0.036710000000     0.808880000000     0.0521728  
H321     H      0.512730000000     0.960220000000     0.808360000000     0.0531713  
H322     H      0.510480000000     0.024980000000     0.693760000000     0.0363316  
H323     H      0.509170000000     0.959410000000     0.871730000000     0.0260492  
H324     H      0.536600000000     0.048750000000     0.576300000000     0.148878   
H325     H      0.453600000000     0.965260000000     0.376550000000     0.0215701  
H326     H      0.490160000000     0.955520000000     0.084880000000     0.0196412  
H327     H      0.446650000000     0.989360000000     0.258510000000     0.0378892  
H328     H      0.515150000000     0.988520000000     0.194600000000     0.0352905  
H329     H      0.486470000000     0.954900000000     0.148350000000     0.057509   
H330     H      0.516960000000     0.992720000000     0.258760000000     0.0384262  
H331     H      0.472940000000     0.015510000000     0.142920000000     0.0806137  
H332     H      0.448620000000     0.962090000000     0.312780000000     0.0525691  
H333     H      0.519050000000     0.027610000000     0.301300000000     0.0530834  
H334     H      0.445030000000     0.985590000000     0.193940000000     0.0368677  
H335     H      0.523370000000     0.030680000000     0.364870000000     0.0223497  
H336     H      0.492750000000     0.034800000000     0.074800000000     0.150078   
H337     H      0.765650000000     0.093540000000     0.108630000000     0.023868   
H338     H      0.573010000000     0.060400000000     0.007480000000     0.01978    
H339     H      0.680920000000     0.055480000000     0.104260000000     0.0384359  
H340     H      0.656200000000     0.095630000000     0.013160000000     0.0351794  
H341     H      0.614470000000     0.081830000000     0.029500000000     0.0564097  
H342     H      0.697640000000     0.117480000000     0.037270000000     0.0376248  
H343     H      0.616300000000     0.014230000000     0.028050000000     0.0810565  
H344     H      0.723970000000     0.070780000000     0.086230000000     0.0532947  
H345     H      0.718420000000     0.136340000000     0.093180000000     0.0522175  
H346     H      0.639320000000     0.033680000000     0.080490000000     0.0353659  
H347     H      0.760100000000     0.158620000000     0.115190000000     0.022684   
H348     H      0.564350000000     0.979530000000     0.028330000000     0.149017   
H349     H      0.155990000000     0.855170000000     0.407490000000     0.0218628  
H350     H      0.192970000000     0.816250000000     0.694860000000     0.0197601  
H351     H      0.149920000000     0.838480000000     0.521940000000     0.0375579  
H352     H      0.228250000000     0.864080000000     0.584850000000     0.0353515  
H353     H      0.197410000000     0.820770000000     0.631360000000     0.0582535  
H354     H      0.228210000000     0.865500000000     0.520480000000     0.036538   
H355     H      0.180850000000     0.879320000000     0.635680000000     0.0822292  
H356     H      0.159620000000     0.860620000000     0.470620000000     0.0519942  
H357     H      0.217090000000     0.841860000000     0.470350000000     0.0513792  
H358     H      0.150690000000     0.838870000000     0.586060000000     0.0385548  
H359     H      0.214060000000     0.838260000000     0.407030000000     0.0216398  
H360     H      0.192160000000     0.893130000000     0.709450000000     0.14933    
H361     H      0.126670000000     0.810100000000     0.200780000000     0.0220658  
H362     H      0.159990000000     0.853610000000     0.913210000000     0.0200804  
H363     H      0.121450000000     0.776500000000     0.085690000000     0.0387038  
H364     H      0.189130000000     0.845220000000     0.019940000000     0.0356104  
H365     H      0.158250000000     0.849840000000     0.976600000000     0.0580088  
H366     H      0.191470000000     0.843590000000     0.084120000000     0.0383386  
H367     H      0.147030000000     0.776740000000     0.967580000000     0.0813741  
H368     H      0.122300000000     0.805960000000     0.137100000000     0.0530959  
H369     H      0.194170000000     0.813480000000     0.130100000000     0.0530453  
H370     H      0.119320000000     0.777920000000     0.021070000000     0.0378641  
H371     H      0.197920000000     0.817120000000     0.193770000000     0.0220218  
H372     H      0.165230000000     0.778690000000     0.897610000000     0.150372   
H373     H      0.242550000000     0.833860000000     0.828810000000     0.0219333  
H374     H      0.430710000000     0.991730000000     0.943920000000     0.0219661  
H375     H      0.303400000000     0.871900000000     0.910010000000     0.037715   
H376     H      0.366820000000     0.954220000000     0.868160000000     0.0354018  
H377     H      0.389450000000     0.972940000000     0.921030000000     0.0573331  
H378     H      0.325870000000     0.934690000000     0.842080000000     0.037717   
H379     H      0.385270000000     0.902410000000     0.923340000000     0.0808708  
H380     H      0.283890000000     0.854010000000     0.852350000000     0.0523858  
H381     H      0.282710000000     0.921940000000     0.858510000000     0.0520822  
H382     H      0.344100000000     0.891520000000     0.936600000000     0.0351909  
H383     H      0.241340000000     0.901300000000     0.834730000000     0.0219494  
H384     H      0.423760000000     0.913000000000     0.974140000000     0.149882   
H385     H      0.827520000000     0.705640000000     0.741070000000     0.0248055  
H386     H      0.802920000000     0.637020000000     0.036630000000     0.0193929  
H387     H      0.855000000000     0.702140000000     0.853900000000     0.0395583  
H388     H      0.782300000000     0.645020000000     0.924590000000     0.0341904  
H389     H      0.797640000000     0.636120000000     0.973800000000     0.0559445  
H390     H      0.780340000000     0.642540000000     0.860320000000     0.0379645  
H391     H      0.847370000000     0.714300000000     0.969870000000     0.0801411  
H392     H      0.824950000000     0.707700000000     0.804770000000     0.0542026  
H393     H      0.808700000000     0.632690000000     0.812610000000     0.0528741  
H394     H      0.857880000000     0.703730000000     0.917820000000     0.0348767  
H395     H      0.812090000000     0.631280000000     0.748880000000     0.0218152  
H396     H      0.873470000000     0.721010000000     0.034650000000     0.150518   
H397     H      0.826800000000     0.632010000000     0.247050000000     0.0233234  
H398     H      0.861920000000     0.709200000000     0.533920000000     0.0206074  
H399     H      0.870390000000     0.643440000000     0.359200000000     0.0380921  
H400     H      0.847830000000     0.699610000000     0.418880000000     0.0356376  
H401     H      0.868460000000     0.710660000000     0.471330000000     0.0565015  
H402     H      0.849720000000     0.699280000000     0.354890000000     0.0396252  
H403     H      0.845730000000     0.633560000000     0.472380000000     0.0801536  
H404     H      0.830790000000     0.632280000000     0.310900000000     0.0542132  
H405     H      0.887970000000     0.708040000000     0.306400000000     0.0528222  
H406     H      0.870360000000     0.644790000000     0.423540000000     0.0340974  
H407     H      0.884200000000     0.707130000000     0.242580000000     0.021831   
H408     H      0.854730000000     0.628420000000     0.546010000000     0.14872    
H409     H      0.569940000000     0.567410000000     0.510480000000     0.0224382  
H410     H      0.762160000000     0.600600000000     0.613120000000     0.0223592  
H411     H      0.636420000000     0.595170000000     0.582040000000     0.0375904  
H412     H      0.699240000000     0.576880000000     0.535160000000     0.036564   
H413     H      0.720590000000     0.579220000000     0.591280000000     0.0576817  
H414     H      0.657700000000     0.555130000000     0.511350000000     0.037792   
H415     H      0.720460000000     0.647610000000     0.586760000000     0.0814635  
H416     H      0.611990000000     0.590560000000     0.530950000000     0.0523659  
H417     H      0.616990000000     0.524540000000     0.527170000000     0.0520284  
H418     H      0.678130000000     0.617200000000     0.605380000000     0.0355718  
H419     H      0.575210000000     0.502120000000     0.505790000000     0.0229673  
H420     H      0.760590000000     0.676170000000     0.635300000000     0.149078   
H421     H      0.096100000000     0.828040000000     0.777860000000     0.0247817  
H422     H      0.905230000000     0.668600000000     0.672440000000     0.0196466  
H423     H      0.013130000000     0.778460000000     0.770870000000     0.0371417  
H424     H      0.990150000000     0.716200000000     0.676400000000     0.0354839  
H425     H      0.946650000000     0.687370000000     0.695200000000     0.0562634  
H426     H      0.031750000000     0.736270000000     0.700210000000     0.0365773  
H427     H      0.952190000000     0.758340000000     0.688800000000     0.0802707  
H428     H      0.054330000000     0.807490000000     0.756280000000     0.0535672  
H429     H      0.055730000000     0.739580000000     0.750760000000     0.0532189  
H430     H      0.971790000000     0.758780000000     0.746380000000     0.038515   
H431     H      0.097820000000     0.760910000000     0.771270000000     0.0243673  
H432     H      0.913230000000     0.747210000000     0.638800000000     0.148778   
N1       N      0.697910000000     0.900550000000     0.779170000000    -0.235047   
N2       N      0.797250000000     0.095840000000     0.669530000000    -0.208155   
N3       N      0.873050000000     0.233880000000     0.612970000000    -0.235182   
N4       N      0.972280000000     0.428830000000     0.502020000000    -0.20712    
N5       N      0.041430000000     0.566820000000     0.443990000000    -0.235039   
N6       N      0.137940000000     0.761150000000     0.330740000000    -0.208364   
N7       N      0.538200000000     0.568850000000     0.951450000000    -0.235105   
N8       N      0.634850000000     0.762680000000     0.837000000000    -0.207928   
N9       N      0.305440000000     0.094780000000     0.165120000000    -0.234863   
N10      N      0.209370000000     0.899140000000     0.273650000000    -0.208275   
N11      N      0.466800000000     0.430430000000     0.008070000000    -0.234885   
N12      N      0.372540000000     0.234010000000     0.113600000000    -0.208442   
N13      N      0.662150000000     0.815830000000     0.707280000000    -0.235516   
N14      N      0.673940000000     0.822790000000     0.408750000000    -0.208631   
N15      N      0.671670000000     0.849450000000     0.207720000000    -0.235133   
N16      N      0.670920000000     0.847540000000     0.908020000000    -0.208078   
N17      N      0.803920000000     0.703030000000     0.168330000000    -0.234825   
N18      N      0.705930000000     0.799660000000     0.280800000000    -0.207956   
N19      N      0.639880000000     0.872200000000     0.335970000000    -0.235065   
N20      N      0.538950000000     0.965460000000     0.449710000000    -0.208438   
N21      N      0.010400000000     0.520790000000     0.872600000000    -0.234502   
N22      N      0.011470000000     0.514420000000     0.573140000000    -0.207691   
N23      N      0.011860000000     0.494040000000     0.074010000000    -0.234091   
N24      N      0.002320000000     0.481620000000     0.372960000000    -0.207132   
N25      N      0.980080000000     0.546410000000     0.999590000000    -0.234421   
N26      N      0.880560000000     0.641780000000     0.110720000000    -0.208428   
N27      N      0.341520000000     0.155460000000     0.739460000000    -0.235218   
N28      N      0.337990000000     0.150790000000     0.038790000000    -0.208778   
N29      N      0.328560000000     0.174740000000     0.538350000000    -0.235536   
N30      N      0.340560000000     0.178410000000     0.240030000000    -0.208235   
N31      N      0.368630000000     0.129900000000     0.609790000000    -0.234075   
N32      N      0.464940000000     0.030390000000     0.501860000000    -0.208571   
N33      N      0.134580000000     0.367370000000     0.835500000000    -0.23526    
N34      N      0.041450000000     0.468890000000     0.947160000000    -0.207561   
N35      N      0.301470000000     0.201040000000     0.667570000000    -0.235356   
N36      N      0.204320000000     0.298510000000     0.780100000000    -0.208484   
N37      N      0.485700000000     0.481510000000     0.579910000000    -0.23526    
N38      N      0.489770000000     0.483700000000     0.879530000000    -0.207958   
N39      N      0.515870000000     0.509040000000     0.379260000000    -0.235554   
N40      N      0.515170000000     0.515120000000     0.079870000000    -0.208678   
N41      N      0.850220000000     0.178890000000     0.040530000000    -0.235333   
N42      N      0.849680000000     0.180000000000     0.741120000000    -0.208505   
N43      N      0.820250000000     0.152760000000     0.241570000000    -0.234852   
N44      N      0.820490000000     0.149800000000     0.541020000000    -0.208013   
N45      N      0.152260000000     0.324970000000     0.407940000000    -0.235265   
N46      N      0.155150000000     0.333350000000     0.707450000000    -0.208263   
N47      N      0.184850000000     0.332220000000     0.207390000000    -0.235187   
N48      N      0.183660000000     0.331990000000     0.907860000000    -0.207875   
N49      N      0.904490000000     0.203930000000     0.168360000000    -0.234468   
N50      N      0.099800000000     0.298070000000     0.278080000000    -0.207273   
N51      N      0.430900000000     0.457220000000     0.451900000000    -0.234317   
N52      N      0.237060000000     0.358960000000     0.337730000000    -0.208201   
N53      N      0.515500000000     0.997560000000     0.576840000000    -0.235476   
N54      N      0.517310000000     0.996780000000     0.876460000000    -0.20786    
N55      N      0.484680000000     0.986370000000     0.076980000000    -0.235581   
N56      N      0.489030000000     0.997940000000     0.375420000000    -0.208497   
N57      N      0.570130000000     0.024820000000     0.005730000000    -0.234656   
N58      N      0.766100000000     0.127820000000     0.113270000000    -0.207822   
N59      N      0.184320000000     0.845050000000     0.702220000000    -0.23546    
N60      N      0.184470000000     0.845950000000     0.402630000000    -0.208653   
N61      N      0.155520000000     0.817860000000     0.903320000000    -0.23531    
N62      N      0.162780000000     0.814360000000     0.201950000000    -0.208483   
N63      N      0.432040000000     0.958220000000     0.947210000000    -0.234529   
N64      N      0.238720000000     0.865980000000     0.830400000000    -0.208364   
N65      N      0.829220000000     0.675580000000     0.039590000000    -0.235774   
N66      N      0.820440000000     0.668460000000     0.740300000000    -0.208049   
N67      N      0.850620000000     0.670980000000     0.539740000000    -0.235118   
N68      N      0.854920000000     0.669640000000     0.240140000000    -0.20813    
N69      N      0.765730000000     0.636500000000     0.612490000000    -0.234374   
N70      N      0.569360000000     0.533010000000     0.506770000000    -0.208164   
N71      N      0.904420000000     0.702320000000     0.667780000000    -0.234796   
N72      N      0.100180000000     0.796100000000     0.775890000000    -0.207363   
O1       O      0.842040000000     0.652200000000     0.594320000000    -0.545858   
O2       O      0.825670000000     0.650210000000     0.691050000000    -0.556315   
O3       O      0.800200000000     0.635370000000     0.630410000000    -0.556218   
O4       O      0.867800000000     0.667240000000     0.654980000000    -0.558084   
O5       O      0.869950000000     0.703540000000     0.649710000000    -0.546311   
O6       O      0.802440000000     0.671700000000     0.624970000000    -0.543188   
O7       O      0.828120000000     0.686710000000     0.685660000000    -0.555297   
O8       O      0.844650000000     0.688720000000     0.589050000000    -0.557506   
O9       O      0.176540000000     0.855440000000     0.757100000000    -0.547732   
O10      O      0.161220000000     0.841480000000     0.853980000000    -0.561542   
O11      O      0.202810000000     0.865690000000     0.817120000000    -0.557625   
O12      O      0.134950000000     0.831230000000     0.793900000000    -0.553311   
O13      O      0.136460000000     0.796740000000     0.787460000000    -0.553678   
O14      O      0.203980000000     0.830930000000     0.812280000000    -0.55816    
O15      O      0.161850000000     0.806550000000     0.848110000000    -0.546541   
O16      O      0.178680000000     0.821300000000     0.751490000000    -0.558201   
O17      O      0.492030000000     0.970810000000     0.026360000000    -0.560551   
O18      O      0.508710000000     0.976160000000     0.929340000000    -0.552008   
O19      O      0.534160000000     0.989710000000     0.990310000000    -0.545868   
O20      O      0.466680000000     0.957290000000     0.965330000000    -0.544557   
O21      O      0.468140000000     0.993350000000     0.961650000000    -0.555474   
O22      O      0.535200000000     0.025630000000     0.989200000000    -0.559418   
O23      O      0.511130000000     0.012780000000     0.927350000000    -0.556948   
O24      O      0.492260000000     0.006300000000     0.023450000000    -0.549136   
O25      O      0.175520000000     0.312140000000     0.261020000000    -0.545951   
O26      O      0.157800000000     0.307810000000     0.357490000000    -0.548087   
O27      O      0.133280000000     0.295250000000     0.296000000000    -0.55118    
O28      O      0.200390000000     0.324810000000     0.322590000000    -0.556407   
O29      O      0.203660000000     0.361760000000     0.319320000000    -0.558769   
O30      O      0.136580000000     0.332210000000     0.292810000000    -0.554798   
O31      O      0.161490000000     0.344900000000     0.354360000000    -0.558756   
O32      O      0.179130000000     0.349180000000     0.257810000000    -0.558341   
O33      O      0.825210000000     0.175650000000     0.191620000000    -0.556365   
O34      O      0.841460000000     0.189390000000     0.094730000000    -0.543671   
O35      O      0.799760000000     0.163970000000     0.130910000000    -0.557214   
O36      O      0.867240000000     0.201290000000     0.155470000000    -0.541      
O37      O      0.870550000000     0.167730000000     0.151210000000    -0.559791   
O38      O      0.803110000000     0.130380000000     0.126490000000    -0.554171   
O39      O      0.845190000000     0.156050000000     0.090510000000    -0.559998   
O40      O      0.828840000000     0.142260000000     0.187290000000    -0.544174   
O41      O      0.490420000000     0.504650000000     0.530280000000    -0.5586     
O42      O      0.506480000000     0.518850000000     0.433360000000    -0.556193   
O43      O      0.464870000000     0.493300000000     0.469700000000    -0.545732   
O44      O      0.532320000000     0.530440000000     0.493990000000    -0.557053   
O45      O      0.535560000000     0.496790000000     0.489530000000    -0.556023   
O46      O      0.468110000000     0.459760000000     0.464340000000    -0.553756   
O47      O      0.510390000000     0.485620000000     0.428750000000    -0.543958   
O48      O      0.493690000000     0.471100000000     0.525190000000    -0.546334   
O49      O      0.144740000000     0.315580000000     0.762420000000    -0.557138   
O50      O      0.159640000000     0.313950000000     0.859010000000    -0.556569   
O51      O      0.135030000000     0.331640000000     0.822970000000    -0.55761    
O52      O      0.169260000000     0.298150000000     0.798510000000    -0.557329   
O53      O      0.203780000000     0.334090000000     0.792510000000    -0.558      
O54      O      0.169530000000     0.367440000000     0.816780000000    -0.546963   
O55      O      0.193990000000     0.350050000000     0.853040000000    -0.553917   
O56      O      0.179140000000     0.351620000000     0.756300000000    -0.556521   
O57      O      0.356740000000     0.177400000000     0.687860000000    -0.543809   
O58      O      0.349050000000     0.188110000000     0.591270000000    -0.559536   
O59      O      0.336630000000     0.200110000000     0.652830000000    -0.546793   
O60      O      0.369200000000     0.165540000000     0.626240000000    -0.544526   
O61      O      0.333530000000     0.130500000000     0.626000000000    -0.554783   
O62      O      0.300720000000     0.165360000000     0.650960000000    -0.55944    
O63      O      0.313610000000     0.152840000000     0.590010000000    -0.546912   
O64      O      0.320510000000     0.142950000000     0.686950000000    -0.560922   
O65      O      0.029970000000     0.517510000000     0.024470000000    -0.545136   
O66      O      0.028820000000     0.531090000000     0.927340000000    -0.548521   
O67      O      0.014480000000     0.543360000000     0.987180000000    -0.542329   
O68      O      0.044230000000     0.505290000000     0.964560000000    -0.552886   
O69      O      0.007220000000     0.472060000000     0.958960000000    -0.55357    
O70      O      0.977590000000     0.509960000000     0.983010000000    -0.559585   
O71      O      0.991580000000     0.498240000000     0.922480000000    -0.560671   
O72      O      0.993320000000     0.483870000000     0.019390000000    -0.56061    
O73      O      0.690240000000     0.859800000000     0.262370000000    -0.545052   
O74      O      0.691920000000     0.846170000000     0.359380000000    -0.559952   
O75      O      0.707120000000     0.835110000000     0.299250000000    -0.555506   
O76      O      0.675030000000     0.870850000000     0.322420000000    -0.547754   
O77      O      0.638810000000     0.836590000000     0.318260000000    -0.559922   
O78      O      0.670790000000     0.801060000000     0.293110000000    -0.556554   
O79      O      0.656000000000     0.811560000000     0.353950000000    -0.556649   
O80      O      0.653580000000     0.826170000000     0.257340000000    -0.557884   
O81      O      0.832360000000     0.652000000000     0.189960000000    -0.554206   
O82      O      0.818960000000     0.655660000000     0.093180000000    -0.559219   
O83      O      0.844370000000     0.639040000000     0.128830000000    -0.559248   
O84      O      0.806760000000     0.668730000000     0.154310000000    -0.543028   
O85      O      0.840260000000     0.705620000000     0.150980000000    -0.557959   
O86      O      0.877880000000     0.676010000000     0.125020000000    -0.557368   
O87      O      0.852150000000     0.692790000000     0.089790000000    -0.549452   
O88      O      0.865790000000     0.689040000000     0.186320000000    -0.558085   
O89      O      0.477790000000     0.980370000000     0.430460000000    -0.555925   
O90      O      0.492330000000     0.978910000000     0.527380000000    -0.558055   
O91      O      0.466900000000     0.995390000000     0.490790000000    -0.557153   
O92      O      0.503090000000     0.963870000000     0.466990000000    -0.557176   
O93      O      0.537170000000     0.000330000000     0.462480000000    -0.556614   
O94      O      0.500700000000     0.031880000000     0.484290000000    -0.558658   
O95      O      0.525710000000     0.015750000000     0.521970000000    -0.546958   
O96      O      0.512170000000     0.016480000000     0.424760000000    -0.559727   
O97      O      0.356350000000     0.158080000000     0.093250000000    -0.559247   
O98      O      0.358110000000     0.172610000000     0.190500000000    -0.558938   
O99      O      0.340800000000     0.131270000000     0.152880000000    -0.558338   
O100     O      0.373510000000     0.199340000000     0.130800000000    -0.556306   
O101     O      0.337310000000     0.197510000000     0.125140000000    -0.558577   
O102     O      0.304790000000     0.129870000000     0.148810000000    -0.545529   
O103     O      0.322320000000     0.171730000000     0.185440000000    -0.554063   
O104     O      0.319820000000     0.155630000000     0.088450000000    -0.556881   
O105     O      0.478690000000     0.492180000000     0.933240000000    -0.551371   
O106     O      0.491890000000     0.509040000000     0.030060000000    -0.557312   
O107     O      0.502720000000     0.534170000000     0.969160000000    -0.546415   
O108     O      0.467750000000     0.466740000000     0.994200000000    -0.545897   
O109     O      0.502240000000     0.465090000000     0.990490000000    -0.56027    
O110     O      0.537160000000     0.532480000000     0.964760000000    -0.558388   
O111     O      0.526380000000     0.507280000000     0.025880000000    -0.558989   
O112     O      0.512930000000     0.489940000000     0.929410000000    -0.557926   
O113     O      0.162330000000     0.839980000000     0.351680000000    -0.557179   
O114     O      0.150270000000     0.821760000000     0.255240000000    -0.557254   
O115     O      0.138860000000     0.797250000000     0.316740000000    -0.557101   
O116     O      0.173700000000     0.864430000000     0.290110000000    -0.557391   
O117     O      0.208600000000     0.863290000000     0.288920000000    -0.556714   
O118     O      0.173480000000     0.795680000000     0.313370000000    -0.557343   
O119     O      0.185490000000     0.821290000000     0.252580000000    -0.557718   
O120     O      0.196550000000     0.837590000000     0.349680000000    -0.558224   
O121     O      0.021770000000     0.488780000000     0.426650000000    -0.555331   
O122     O      0.027520000000     0.507370000000     0.522920000000    -0.558169   
O123     O      0.007850000000     0.464490000000     0.488270000000    -0.555493   
O124     O      0.041400000000     0.531560000000     0.461270000000    -0.54576    
O125     O      0.005880000000     0.531280000000     0.458930000000    -0.556022   
O126     O      0.972090000000     0.463750000000     0.484060000000    -0.555758   
O127     O      0.991360000000     0.505910000000     0.519890000000    -0.560563   
O128     O      0.986480000000     0.489060000000     0.423060000000    -0.559881   
O129     O      0.810780000000     0.158410000000     0.595640000000    -0.556725   
O130     O      0.826060000000     0.175010000000     0.692110000000    -0.556987   
O131     O      0.837000000000     0.200210000000     0.631250000000    -0.559962   
O132     O      0.799720000000     0.132860000000     0.656570000000    -0.555288   
O133     O      0.833150000000     0.129320000000     0.650850000000    -0.559129   
O134     O      0.870340000000     0.196630000000     0.625790000000    -0.544047   
O135     O      0.859270000000     0.171070000000     0.686600000000    -0.557213   
O136     O      0.844050000000     0.154580000000     0.590050000000    -0.55451    
O137     O      0.681890000000     0.823550000000     0.760990000000    -0.548672   
O138     O      0.687490000000     0.841950000000     0.857250000000    -0.557095   
O139     O      0.669390000000     0.799170000000     0.822620000000    -0.55373    
O140     O      0.699900000000     0.866240000000     0.795570000000    -0.560012   
O141     O      0.663420000000     0.863980000000     0.794290000000    -0.546354   
O142     O      0.632730000000     0.796510000000     0.818820000000    -0.558023   
O143     O      0.650350000000     0.838330000000     0.855070000000    -0.554555   
O144     O      0.645810000000     0.822090000000     0.757950000000    -0.560367   
O145     O      0.659940000000     0.901230000000     0.779780000000    -0.29649    
O146     O      0.911160000000     0.233540000000     0.611020000000    -0.296881   
O147     O      0.081020000000     0.569590000000     0.446570000000    -0.297197   
O148     O      0.501990000000     0.572680000000     0.954940000000    -0.296735   
O149     O      0.265440000000     0.090960000000     0.160980000000    -0.29669    
O150     O      0.427800000000     0.428940000000     0.009830000000    -0.296461   
O151     O      0.696340000000     0.808640000000     0.709180000000    -0.29788    
O152     O      0.713750000000     0.882170000000     0.208220000000    -0.297585   
O153     O      0.765690000000     0.664810000000     0.167850000000    -0.297261   
O154     O      0.677510000000     0.911020000000     0.337690000000    -0.297005   
O155     O      0.052800000000     0.552770000000     0.873210000000    -0.296872   
O156     O      0.048300000000     0.532970000000     0.084240000000    -0.295735   
O157     O      0.018440000000     0.584500000000     0.000270000000    -0.293605   
O158     O      0.384430000000     0.185710000000     0.741130000000    -0.295093   
O159     O      0.291910000000     0.135290000000     0.532860000000    -0.297531   
O160     O      0.408060000000     0.166870000000     0.607550000000    -0.2934     
O161     O      0.170900000000     0.407090000000     0.829970000000    -0.297326   
O162     O      0.338640000000     0.240260000000     0.665480000000    -0.29628    
O163     O      0.496650000000     0.449840000000     0.579520000000    -0.296305   
O164     O      0.533200000000     0.482600000000     0.375600000000    -0.296866   
O165     O      0.836680000000     0.208550000000     0.038890000000    -0.297002   
O166     O      0.833540000000     0.122890000000     0.242830000000    -0.296961   
O167     O      0.136690000000     0.281470000000     0.411330000000    -0.297974   
O168     O      0.173350000000     0.289560000000     0.205060000000    -0.297674   
O169     O      0.904460000000     0.242190000000     0.169570000000    -0.296702   
O170     O      0.425470000000     0.492440000000     0.456570000000    -0.297328   
O171     O      0.546430000000     0.040370000000     0.576240000000    -0.297186   
O172     O      0.476310000000     0.019800000000     0.075070000000    -0.298238   
O173     O      0.571980000000     0.987470000000     0.005600000000    -0.296055   
O174     O      0.176110000000     0.878610000000     0.703420000000    -0.297599   
O175     O      0.148550000000     0.776650000000     0.899360000000    -0.297436   
O176     O      0.428380000000     0.918250000000     0.949330000000    -0.297213   
O177     O      0.856850000000     0.719110000000     0.036230000000    -0.299113   
O178     O      0.839440000000     0.628390000000     0.539360000000    -0.297951   
O179     O      0.764550000000     0.674170000000     0.610660000000    -0.296044   
O180     O      0.908730000000     0.742530000000     0.663810000000    -0.297089   
V1       V      0.833860000000     0.649820000000     0.642920000000     1.39435    
V2       V      0.836340000000     0.689080000000     0.637110000000     1.40744    
V3       V      0.168820000000     0.849820000000     0.805750000000     1.40354    
V4       V      0.170290000000     0.812510000000     0.799580000000     1.39576    
V5       V      0.500350000000     0.972070000000     0.977950000000     1.40473    
V6       V      0.501730000000     0.010940000000     0.975310000000     1.39744    
V7       V      0.166640000000     0.308550000000     0.309420000000     1.40128    
V8       V      0.170320000000     0.348460000000     0.305920000000     1.39537    
V9       V      0.833310000000     0.183920000000     0.143380000000     1.40138    
V10      V      0.837020000000     0.147760000000     0.138690000000     1.40012    
V11      V      0.498400000000     0.513140000000     0.482040000000     1.39795    
V12      V      0.502020000000     0.476970000000     0.476730000000     1.40566    
V13      V      0.150780000000     0.313420000000     0.810990000000     1.39385    
V14      V      0.187980000000     0.352200000000     0.804400000000     1.40346    
V15      V      0.354320000000     0.184170000000     0.639620000000     1.40994    
V16      V      0.315670000000     0.146530000000     0.638430000000     1.39965    
V17      V      0.030820000000     0.525630000000     0.976100000000     1.41832    
V18      V      0.990950000000     0.489720000000     0.970760000000     1.38503    
V19      V      0.692510000000     0.854320000000     0.311070000000     1.40967    
V20      V      0.653350000000     0.817480000000     0.305440000000     1.39223    
V21      V      0.824280000000     0.652400000000     0.141730000000     1.40034    
V22      V      0.860370000000     0.692310000000     0.137870000000     1.39979    
V23      V      0.483670000000     0.978190000000     0.479150000000     1.39114    
V24      V      0.520270000000     0.017550000000     0.473160000000     1.4083     
V25      V      0.358620000000     0.165380000000     0.142070000000     1.39677    
V26      V      0.319630000000     0.163620000000     0.136760000000     1.40191    
V27      V      0.483890000000     0.500580000000     0.981840000000     1.40458    
V28      V      0.521060000000     0.498660000000     0.977450000000     1.39673    
V29      V      0.154920000000     0.830910000000     0.303550000000     1.39702    
V30      V      0.192410000000     0.829410000000     0.301040000000     1.39655    
V31      V      0.026040000000     0.498060000000     0.474930000000     1.4068     
V32      V      0.987540000000     0.497480000000     0.471350000000     1.38837    
V33      V      0.817050000000     0.166730000000     0.644130000000     1.39419    
V34      V      0.853030000000     0.162780000000     0.638080000000     1.40253    
V35      V      0.686110000000     0.832820000000     0.809220000000     1.39851    
V36      V      0.646620000000     0.830120000000     0.806410000000     1.40139    


