data_structure

_audit_creation_method RASPA-1.0
_audit_creation_date 2023-6-5
_audit_author_name 'Poobodin Mano'

_cell_length_a    62.7559
_cell_length_b    62.758
_cell_length_c    37.9531
_cell_angle_alpha 89.9409
_cell_angle_beta  90.0589
_cell_angle_gamma 119.934
_cell_volume      129536

_symmetry_cell_setting          triclinic
_symmetry_space_group_name_Hall 'P 1'
_symmetry_space_group_name_H-M  'P 1'
_symmetry_Int_Tables_number     1

_symmetry_equiv_pos_as_xyz 'x,y,z'

loop_
_atom_site_label
_atom_site_type_symbol
_atom_site_fract_x
_atom_site_fract_y
_atom_site_fract_z
_atom_site_charge
C1       C      0.829170000000     0.667570000000     0.706040000000     0.492566   
C2       C      0.850050000000     0.671340000000     0.576060000000     0.491486   
C3       C      0.884370000000     0.690690000000     0.657730000000     0.493454   
C4       C      0.793600000000     0.647510000000     0.625260000000     0.489895   
C5       C      0.162040000000     0.827560000000     0.870620000000     0.490933   
C6       C      0.185110000000     0.842900000000     0.741120000000     0.482903   
C7       C      0.128720000000     0.813440000000     0.788430000000     0.481394   
C8       C      0.219110000000     0.857170000000     0.822720000000     0.489618   
C9       C      0.517860000000     0.003660000000     0.924560000000     0.49001    
C10      C      0.489760000000     0.993530000000     0.052150000000     0.491315   
C11      C      0.459440000000     0.976280000000     0.967590000000     0.481655   
C12      C      0.548230000000     0.021000000000     0.009350000000     0.482075   
C13      C      0.185080000000     0.331850000000     0.240110000000     0.492641   
C14      C      0.159870000000     0.323970000000     0.368590000000     0.481217   
C15      C      0.127490000000     0.305050000000     0.285060000000     0.479445   
C16      C      0.217060000000     0.350550000000     0.323220000000     0.482359   
C17      C      0.848840000000     0.178480000000     0.064330000000     0.489903   
C18      C      0.831070000000     0.158660000000     0.194030000000     0.501753   
C19      C      0.886840000000     0.189720000000     0.142270000000     0.490054   
C20      C      0.795240000000     0.149410000000     0.119880000000     0.501679   
C21      C      0.495280000000     0.495320000000     0.538540000000     0.482887   
C22      C      0.515170000000     0.509190000000     0.408070000000     0.491651   
C23      C      0.460000000000     0.478330000000     0.458250000000     0.491827   
C24      C      0.550920000000     0.526390000000     0.489270000000     0.480157   
C25      C      0.178630000000     0.334740000000     0.869770000000     0.483831   
C26      C      0.166780000000     0.338980000000     0.738180000000     0.490867   
C27      C      0.195670000000     0.314370000000     0.791670000000     0.493753   
C28      C      0.149430000000     0.359860000000     0.817180000000     0.481471   
C29      C      0.337370000000     0.157940000000     0.706730000000     0.479928   
C30      C      0.334580000000     0.175380000000     0.576630000000     0.479994   
C31      C      0.314480000000     0.190490000000     0.657500000000     0.480483   
C32      C      0.357570000000     0.142850000000     0.626030000000     0.4807     
C33      C      0.005360000000     0.514830000000     0.905350000000     0.496908   
C34      C      0.009250000000     0.496160000000     0.034640000000     0.486424   
C35      C      0.030100000000     0.482770000000     0.953470000000     0.490605   
C36      C      0.984670000000     0.527830000000     0.986980000000     0.479828   
C37      C      0.661810000000     0.839710000000     0.241830000000     0.493466   
C38      C      0.672460000000     0.825200000000     0.370750000000     0.48194    
C39      C      0.688090000000     0.808590000000     0.286670000000     0.490267   
C40      C      0.646140000000     0.856230000000     0.324710000000     0.492537   
C41      C      0.824200000000     0.666510000000     0.076130000000     0.481348   
C42      C      0.843300000000     0.662410000000     0.205210000000     0.48019    
C43      C      0.810940000000     0.686660000000     0.158620000000     0.481209   
C44      C      0.856440000000     0.642340000000     0.121850000000     0.489721   
C45      C      0.512080000000     0.996930000000     0.553480000000     0.480383   
C46      C      0.494990000000     0.998450000000     0.422900000000     0.482302   
C47      C      0.527530000000     0.976120000000     0.473390000000     0.480971   
C48      C      0.479380000000     0.019220000000     0.501930000000     0.490595   
C49      C      0.343830000000     0.181730000000     0.205530000000     0.488784   
C50      C      0.336090000000     0.155520000000     0.077300000000     0.491512   
C51      C      0.360770000000     0.213300000000     0.121910000000     0.481524   
C52      C      0.319060000000     0.123960000000     0.160680000000     0.484621   
C53      C      0.516000000000     0.510480000000     0.038990000000     0.484084   
C54      C      0.495680000000     0.494000000000     0.908890000000     0.493333   
C55      C      0.480550000000     0.456180000000     0.987450000000     0.490391   
C56      C      0.530720000000     0.547580000000     0.960290000000     0.49316    
C57      C      0.185540000000     0.844390000000     0.370420000000     0.495449   
C58      C      0.170170000000     0.824740000000     0.240070000000     0.483404   
C59      C      0.154120000000     0.788590000000     0.319690000000     0.489684   
C60      C      0.201250000000     0.879950000000     0.291130000000     0.493669   
C61      C      0.003190000000     0.488490000000     0.405470000000     0.494344   
C62      C      0.009530000000     0.511490000000     0.534900000000     0.48562    
C63      C      0.984150000000     0.454950000000     0.487390000000     0.486413   
C64      C      0.028800000000     0.545240000000     0.452660000000     0.480199   
C65      C      0.838730000000     0.175150000000     0.692860000000     0.479191   
C66      C      0.821960000000     0.153230000000     0.563040000000     0.478715   
C67      C      0.806720000000     0.118950000000     0.645220000000     0.479964   
C68      C      0.853880000000     0.209240000000     0.611210000000     0.479987   
C69      C      0.666790000000     0.826280000000     0.740650000000     0.491064   
C70      C      0.670720000000     0.842990000000     0.871980000000     0.483052   
C71      C      0.647650000000     0.788690000000     0.820400000000     0.481123   
C72      C      0.689680000000     0.880050000000     0.792880000000     0.492788   
C73      C      0.699430000000     0.940550000000     0.764830000000    -0.119778   
C74      C      0.806590000000     0.082080000000     0.660660000000     0.0785459  
C75      C      0.769930000000     0.084010000000     0.665580000000     0.078469   
C76      C      0.794790000000     0.058320000000     0.674600000000    -0.0967581  
C77      C      0.761490000000     0.003700000000     0.688720000000    -0.03522    
C78      C      0.750370000000     0.980690000000     0.705110000000    -0.0313825  
C79      C      0.757710000000     0.022560000000     0.701560000000    -0.00597511 
C80      C      0.757600000000     0.060300000000     0.679770000000    -0.0964126  
C81      C      0.735270000000     0.976010000000     0.734810000000    -0.0102268  
C82      C      0.736620000000     0.939050000000     0.757020000000    -0.103407   
C83      C      0.731410000000     0.994850000000     0.747550000000    -0.0311438  
C84      C      0.725190000000     0.915760000000     0.772360000000     0.0862616  
C85      C      0.688440000000     0.917290000000     0.780880000000     0.177048   
C86      C      0.742470000000     0.017840000000     0.731080000000    -0.0344372  
C87      C      0.770100000000     0.047270000000     0.684830000000     0.0525359  
C88      C      0.723600000000     0.951540000000     0.752340000000     0.0682151  
C89      C      0.971010000000     0.393720000000     0.518730000000    -0.120003   
C90      C      0.854570000000     0.246540000000     0.596610000000     0.0783956  
C91      C      0.891370000000     0.244700000000     0.594460000000     0.0787135  
C92      C      0.867080000000     0.270880000000     0.584780000000    -0.0964423  
C93      C      0.900820000000     0.326040000000     0.576500000000    -0.03501    
C94      C      0.913630000000     0.350080000000     0.563500000000    -0.0320534  
C95      C      0.905810000000     0.307960000000     0.563650000000    -0.00629715 
C96      C      0.904430000000     0.269000000000     0.582750000000    -0.0968277  
C97      C      0.931780000000     0.356610000000     0.537490000000    -0.0106021  
C98      C      0.933560000000     0.395140000000     0.515630000000    -0.103424   
C99      C      0.936700000000     0.338540000000     0.524550000000    -0.0318549  
C100     C      0.946860000000     0.419100000000     0.502720000000     0.0844194  
C101     C      0.984030000000     0.417760000000     0.505450000000     0.1712     
C102     C      0.923840000000     0.314500000000     0.537400000000    -0.0344415  
C103     C      0.892290000000     0.282360000000     0.577380000000     0.052462   
C104     C      0.945630000000     0.382190000000     0.523930000000     0.0671622  
C105     C      0.139750000000     0.725600000000     0.342770000000    -0.120031   
C106     C      0.028130000000     0.581600000000     0.436180000000     0.0795019  
C107     C      0.065630000000     0.581040000000     0.434770000000     0.0804399  
C108     C      0.039970000000     0.605680000000     0.423280000000    -0.0958485  
C109     C      0.074540000000     0.661350000000     0.414460000000    -0.0348817  
C110     C      0.086880000000     0.685060000000     0.400230000000    -0.031107   
C111     C      0.077770000000     0.642570000000     0.399980000000    -0.00548821 
C112     C      0.077930000000     0.604950000000     0.421440000000    -0.09581    
C113     C      0.102490000000     0.690460000000     0.370910000000    -0.0101868  
C114     C      0.104700000000     0.730270000000     0.354210000000    -0.102859   
C115     C      0.105370000000     0.671480000000     0.356190000000    -0.0308672  
C116     C      0.117640000000     0.754130000000     0.340830000000     0.08441    
C117     C      0.152180000000     0.749410000000     0.328450000000     0.171861   
C118     C      0.093280000000     0.647870000000     0.370680000000    -0.0343514  
C119     C      0.065070000000     0.617480000000     0.415290000000     0.0534301  
C120     C      0.115840000000     0.715790000000     0.355930000000     0.0669409  
C121     C      0.580820000000     0.607750000000     0.929910000000    -0.119177   
C122     C      0.611430000000     0.751120000000     0.834960000000     0.0800978  
C123     C      0.650310000000     0.753500000000     0.837210000000     0.0793627  
C124     C      0.600010000000     0.727030000000     0.847740000000    -0.0953657  
C125     C      0.579530000000     0.672280000000     0.859570000000    -0.0338554  
C126     C      0.568300000000     0.648980000000     0.875110000000    -0.0312465  
C127     C      0.602470000000     0.691000000000     0.871670000000    -0.00559726 
C128     C      0.639490000000     0.729480000000     0.850070000000    -0.0963677  
C129     C      0.579730000000     0.643850000000     0.903140000000    -0.0092794  
C130     C      0.542280000000     0.607090000000     0.927140000000    -0.10089    
C131     C      0.602770000000     0.662490000000     0.915020000000    -0.0312589  
C132     C      0.530820000000     0.583740000000     0.942230000000     0.0891575  
C133     C      0.568960000000     0.584360000000     0.945670000000     0.1728     
C134     C      0.614010000000     0.685790000000     0.899480000000    -0.033709   
C135     C      0.614090000000     0.716040000000     0.856000000000     0.053335   
C136     C      0.567460000000     0.619200000000     0.920100000000     0.0678171  
C137     C      0.251030000000     0.941950000000     0.266580000000    -0.119903   
C138     C      0.282750000000     0.086730000000     0.176020000000     0.0834419  
C139     C      0.321620000000     0.089210000000     0.180270000000     0.0823     
C140     C      0.271100000000     0.062610000000     0.188630000000    -0.0951351  
C141     C      0.250930000000     0.007600000000     0.197520000000    -0.0346527  
C142     C      0.239470000000     0.983810000000     0.211420000000    -0.0307406  
C143     C      0.273010000000     0.026220000000     0.212080000000    -0.00491414 
C144     C      0.310570000000     0.065170000000     0.193140000000    -0.094983   
C145     C      0.249760000000     0.978080000000     0.240310000000    -0.0100798  
C146     C      0.211850000000     0.939370000000     0.258790000000    -0.102628   
C147     C      0.271890000000     0.996720000000     0.254820000000    -0.0302533  
C148     C      0.200440000000     0.915510000000     0.272180000000     0.0882389  
C149     C      0.239200000000     0.918070000000     0.280710000000     0.174449   
C150     C      0.283400000000     0.020490000000     0.240820000000    -0.0341365  
C151     C      0.285030000000     0.051600000000     0.197640000000     0.0541989  
C152     C      0.237400000000     0.952780000000     0.255250000000     0.0682333  
C153     C      0.429840000000     0.395420000000     0.014770000000    -0.120047   
C154     C      0.397070000000     0.250440000000     0.106230000000     0.0807721  
C155     C      0.358220000000     0.247970000000     0.101890000000     0.0801323  
C156     C      0.408700000000     0.274450000000     0.093200000000    -0.0955475  
C157     C      0.429440000000     0.329240000000     0.082760000000    -0.0350543  
C158     C      0.441040000000     0.352870000000     0.068310000000    -0.031586   
C159     C      0.406830000000     0.310790000000     0.069270000000    -0.00557614 
C160     C      0.369260000000     0.271950000000     0.088780000000    -0.0956838  
C161     C      0.430320000000     0.358640000000     0.040030000000    -0.0105363  
C162     C      0.468290000000     0.395950000000     0.018470000000    -0.103808   
C163     C      0.407610000000     0.340260000000     0.026720000000    -0.031237   
C164     C      0.480090000000     0.419670000000     0.004570000000     0.0846693  
C165     C      0.442040000000     0.419200000000     0.000260000000     0.172408   
C166     C      0.396000000000     0.316610000000     0.041160000000    -0.0343315  
C167     C      0.394780000000     0.285470000000     0.084070000000     0.0530284  
C168     C      0.442960000000     0.383690000000     0.024360000000     0.0670772  
C169     C      0.652410000000     0.825950000000     0.646350000000    -0.121612   
C170     C      0.693770000000     0.840350000000     0.425020000000     0.0802572  
C171     C      0.656620000000     0.802040000000     0.423610000000     0.0803872  
C172     C      0.694590000000     0.839180000000     0.461670000000    -0.0966872  
C173     C      0.670530000000     0.798290000000     0.538220000000    -0.0352753  
C174     C      0.668790000000     0.798280000000     0.575000000000    -0.0316118  
C175     C      0.674850000000     0.819110000000     0.518670000000    -0.00608733 
C176     C      0.657070000000     0.800120000000     0.460250000000    -0.0958287  
C177     C      0.670800000000     0.818880000000     0.592610000000    -0.0114276  
C178     C      0.682910000000     0.813800000000     0.653440000000    -0.104544   
C179     C      0.675170000000     0.839660000000     0.573020000000    -0.0315064  
C180     C      0.682000000000     0.816440000000     0.689820000000     0.0847708  
C181     C      0.651820000000     0.828560000000     0.682940000000     0.172849   
C182     C      0.677330000000     0.839840000000     0.536450000000    -0.0345975  
C183     C      0.675830000000     0.819160000000     0.479710000000     0.0533765  
C184     C      0.668290000000     0.818960000000     0.631340000000     0.0678622  
C185     C      0.641490000000     0.827350000000     0.149200000000    -0.121265   
C186     C      0.688840000000     0.845450000000     0.928070000000     0.0804995  
C187     C      0.653430000000     0.849720000000     0.923710000000     0.0824794  
C188     C      0.688260000000     0.846630000000     0.964760000000    -0.0972033  
C189     C      0.668280000000     0.868690000000     0.038100000000    -0.0343467  
C190     C      0.666400000000     0.868090000000     0.074860000000    -0.0309799  
C191     C      0.668040000000     0.849100000000     0.019920000000    -0.00614877 
C192     C      0.652680000000     0.851560000000     0.960300000000    -0.0957881  
C193     C      0.663610000000     0.847600000000     0.093740000000    -0.0109151  
C194     C      0.680120000000     0.865000000000     0.153060000000    -0.103732   
C195     C      0.663080000000     0.827910000000     0.075490000000    -0.031208   
C196     C      0.679040000000     0.862740000000     0.189650000000     0.0883662  
C197     C      0.640260000000     0.825980000000     0.186110000000     0.17709    
C198     C      0.665540000000     0.828770000000     0.038890000000    -0.033995   
C199     C      0.669910000000     0.849490000000     0.981150000000     0.054496   
C200     C      0.661630000000     0.846750000000     0.132520000000     0.0696842  
C201     C      0.698430000000     0.759250000000     0.252790000000    -0.120698   
C202     C      0.811550000000     0.723530000000     0.175380000000     0.0788454  
C203     C      0.773980000000     0.685600000000     0.176100000000     0.0793105  
C204     C      0.799740000000     0.735770000000     0.188230000000    -0.097296   
C205     C      0.771880000000     0.752040000000     0.237170000000    -0.0353534  
C206     C      0.759660000000     0.763720000000     0.250720000000    -0.0320155  
C207     C      0.761670000000     0.735270000000     0.209190000000    -0.00635365 
C208     C      0.761540000000     0.697320000000     0.188590000000    -0.0966202  
C209     C      0.737050000000     0.759040000000     0.236380000000    -0.0106223  
C210     C      0.737130000000     0.796290000000     0.260610000000    -0.103451   
C211     C      0.726980000000     0.742370000000     0.208160000000    -0.0313823  
C212     C      0.724600000000     0.808020000000     0.272550000000     0.0840465  
C213     C      0.686140000000     0.771550000000     0.263970000000     0.172903   
C214     C      0.739090000000     0.730530000000     0.194860000000    -0.0345427  
C215     C      0.774470000000     0.722650000000     0.195100000000     0.0529067  
C216     C      0.724080000000     0.771620000000     0.250470000000     0.0670756  
C217     C      0.635910000000     0.906280000000     0.354870000000    -0.120293   
C218     C      0.528270000000     0.939370000000     0.460230000000     0.0796326  
C219     C      0.564490000000     0.978090000000     0.453650000000     0.0794787  
C220     C      0.540290000000     0.927460000000     0.446840000000    -0.0959815  
C221     C      0.574380000000     0.906860000000     0.432760000000    -0.0344808  
C222     C      0.585730000000     0.895170000000     0.416410000000    -0.0311815  
C223     C      0.577340000000     0.929040000000     0.419250000000    -0.00571531 
C224     C      0.577020000000     0.966780000000     0.440010000000    -0.0967428  
C225     C      0.600220000000     0.905350000000     0.386100000000    -0.0100545  
C226     C      0.599520000000     0.867270000000     0.364560000000    -0.102563   
C227     C      0.603190000000     0.927560000000     0.372660000000    -0.0310091  
C228     C      0.611010000000     0.855720000000     0.348460000000     0.087106   
C229     C      0.646950000000     0.894320000000     0.338080000000     0.172875   
C230     C      0.591920000000     0.939280000000     0.389080000000    -0.0340648  
C231     C      0.564820000000     0.941210000000     0.435940000000     0.0534107  
C232     C      0.612090000000     0.892800000000     0.368500000000     0.0678148  
C233     C      0.984910000000     0.509650000000     0.813200000000    -0.124261   
C234     C      0.031420000000     0.522210000000     0.589270000000     0.0822485  
C235     C      0.990300000000     0.514100000000     0.587490000000     0.0782867  
C236     C      0.032200000000     0.525540000000     0.625720000000    -0.0954371  
C237     C      0.024770000000     0.516020000000     0.703660000000    -0.0340683  
C238     C      0.023990000000     0.516500000000     0.740400000000    -0.0313326  
C239     C      0.011070000000     0.523650000000     0.683090000000    -0.00226394 
C240     C      0.990250000000     0.516740000000     0.624010000000    -0.0986034  
C241     C      0.009120000000     0.524100000000     0.757470000000    -0.00799409 
C242     C      0.028730000000     0.536020000000     0.816710000000    -0.104588   
C243     C      0.995440000000     0.531760000000     0.737290000000    -0.0343552  
C244     C      0.027150000000     0.534060000000     0.853300000000     0.0871402  
C245     C      0.983740000000     0.507800000000     0.850130000000     0.170315   
C246     C      0.996610000000     0.531820000000     0.700490000000    -0.0368161  
C247     C      0.011280000000     0.522260000000     0.643820000000     0.0565223  
C248     C      0.007540000000     0.523400000000     0.796320000000     0.0712366  
C249     C      0.018260000000     0.475730000000     0.316840000000    -0.121295   
C250     C      0.991130000000     0.470890000000     0.085140000000     0.0786948  
C251     C      0.028000000000     0.509100000000     0.091020000000     0.0830265  
C252     C      0.990290000000     0.467150000000     0.121520000000    -0.0990914  
C253     C      0.984020000000     0.472460000000     0.199520000000    -0.0376048  
C254     C      0.982630000000     0.471360000000     0.236260000000    -0.0343433  
C255     C      0.006860000000     0.482380000000     0.182340000000    -0.00249153 
C256     C      0.027630000000     0.506040000000     0.127490000000    -0.0958376  
C257     C      0.004070000000     0.480320000000     0.256810000000    -0.00750606 
C258     C      0.986210000000     0.485930000000     0.312810000000    -0.107094   
C259     C      0.026860000000     0.489760000000     0.239630000000    -0.0310356  
C260     C      0.985980000000     0.487210000000     0.349450000000     0.08299    
C261     C      0.017530000000     0.476870000000     0.353740000000     0.174245   
C262     C      0.028230000000     0.490700000000     0.202870000000    -0.0339328  
C263     C      0.008440000000     0.485040000000     0.143300000000     0.0568673  
C264     C      0.002780000000     0.480580000000     0.295960000000     0.0706251  
C265     C      0.869170000000     0.594720000000     0.087510000000    -0.120633   
C266     C      0.985210000000     0.564060000000     0.007100000000     0.0759971  
C267     C      0.947260000000     0.526910000000     0.000990000000     0.0827476  
C268     C      0.973090000000     0.575940000000     0.020260000000    -0.0941669  
C269     C      0.943860000000     0.590790000000     0.068270000000    -0.0353385  
C270     C      0.931080000000     0.601580000000     0.082900000000    -0.0317672  
C271     C      0.934270000000     0.574980000000     0.039090000000    -0.00533564 
C272     C      0.934570000000     0.538220000000     0.013970000000    -0.0949854  
C273     C      0.908420000000     0.596790000000     0.068670000000    -0.0108163  
C274     C      0.906990000000     0.632910000000     0.094050000000    -0.103789   
C275     C      0.898950000000     0.581150000000     0.039310000000    -0.0310008  
C276     C      0.893690000000     0.643670000000     0.106610000000     0.0840785  
C277     C      0.856100000000     0.606000000000     0.099620000000     0.171453   
C278     C      0.911710000000     0.570370000000     0.024710000000    -0.0343884  
C279     C      0.947480000000     0.562960000000     0.024110000000     0.052889   
C280     C      0.894740000000     0.608210000000     0.084060000000     0.0669941  
C281     C      0.312340000000     0.136510000000     0.987210000000    -0.119864   
C282     C      0.357990000000     0.168560000000     0.762150000000     0.078674   
C283     C      0.316750000000     0.135870000000     0.758560000000     0.0787378  
C284     C      0.357880000000     0.165710000000     0.798670000000    -0.0974234  
C285     C      0.352990000000     0.143390000000     0.873350000000    -0.0356051  
C286     C      0.352310000000     0.142540000000     0.910170000000    -0.0319134  
C287     C      0.335370000000     0.146240000000     0.854390000000    -0.0066572  
C288     C      0.315840000000     0.132900000000     0.795100000000    -0.0974671  
C289     C      0.334310000000     0.145080000000     0.928880000000    -0.010279   
C290     C      0.356380000000     0.155710000000     0.987230000000    -0.102807   
C291     C      0.316640000000     0.147830000000     0.909580000000    -0.0316482  
C292     C      0.356190000000     0.157320000000     0.023840000000     0.0849982  
C293     C      0.312590000000     0.138430000000     0.024110000000     0.171469   
C294     C      0.317040000000     0.148160000000     0.872780000000    -0.0348158  
C295     C      0.336490000000     0.148050000000     0.815520000000     0.0529278  
C296     C      0.334340000000     0.145660000000     0.968230000000     0.0660729  
C297     C      0.363560000000     0.192500000000     0.298570000000    -0.119765   
C298     C      0.317090000000     0.161390000000     0.519810000000     0.0785482  
C299     C      0.351830000000     0.201140000000     0.526320000000     0.0784181  
C300     C      0.317690000000     0.164360000000     0.483310000000    -0.0959088  
C301     C      0.316200000000     0.177270000000     0.407330000000    -0.0352034  
C302     C      0.318000000000     0.178280000000     0.370600000000    -0.0320591  
C303     C      0.337390000000     0.189170000000     0.428540000000    -0.00578032 
C304     C      0.352610000000     0.204970000000     0.489940000000    -0.0959624  
C305     C      0.340990000000     0.191710000000     0.353890000000    -0.0101368  
C306     C      0.324230000000     0.189840000000     0.292880000000    -0.102839   
C307     C      0.362060000000     0.204510000000     0.375100000000    -0.031825   
C308     C      0.325540000000     0.187670000000     0.256470000000     0.0835899  
C309     C      0.364950000000     0.191340000000     0.261770000000     0.170811   
C310     C      0.360320000000     0.203020000000     0.411830000000    -0.0344413  
C311     C      0.335710000000     0.186290000000     0.467710000000     0.0517137  
C312     C      0.343000000000     0.191500000000     0.314670000000     0.065676   
C313     C      0.428890000000     0.030450000000     0.525970000000    -0.120421   
C314     C      0.394360000000     0.142140000000     0.613250000000     0.0787807  
C315     C      0.355750000000     0.105600000000     0.608180000000     0.0789593  
C316     C      0.406410000000     0.129830000000     0.601600000000    -0.0969907  
C317     C      0.427350000000     0.095600000000     0.593770000000    -0.0353346  
C318     C      0.439260000000     0.083610000000     0.580240000000    -0.0320233  
C319     C      0.405250000000     0.091810000000     0.578750000000    -0.00623124 
C320     C      0.367210000000     0.092750000000     0.596320000000    -0.0967581  
C321     C      0.429370000000     0.067600000000     0.551320000000    -0.0106822  
C322     C      0.467700000000     0.067530000000     0.533140000000    -0.103927   
C323     C      0.407230000000     0.063780000000     0.536360000000    -0.0314113  
C324     C      0.479480000000     0.055360000000     0.520040000000     0.0843183  
C325     C      0.441080000000     0.018680000000     0.512180000000     0.171767   
C326     C      0.395290000000     0.075720000000     0.549950000000    -0.0343062  
C327     C      0.392810000000     0.104900000000     0.592620000000     0.0528111  
C328     C      0.442150000000     0.054990000000     0.536810000000     0.0669369  
C329     C      0.079310000000     0.469960000000     0.927580000000    -0.120049   
C330     C      0.112330000000     0.359510000000     0.831940000000     0.0796529  
C331     C      0.150270000000     0.397060000000     0.832380000000     0.080754   
C332     C      0.100070000000     0.371490000000     0.844200000000    -0.0966138  
C333     C      0.078940000000     0.406110000000     0.853140000000    -0.0345991  
C334     C      0.067460000000     0.418140000000     0.868070000000    -0.0313093  
C335     C      0.101080000000     0.409380000000     0.867180000000    -0.00574305 
C336     C      0.138660000000     0.409530000000     0.845080000000    -0.0962994  
C337     C      0.077720000000     0.433460000000     0.897660000000    -0.00989914 
C338     C      0.039880000000     0.434670000000     0.915820000000    -0.102612   
C339     C      0.099790000000     0.436470000000     0.911830000000    -0.0307761  
C340     C      0.028690000000     0.447020000000     0.930350000000     0.0852518  
C341     C      0.067680000000     0.481770000000     0.943070000000     0.172047   
C342     C      0.111400000000     0.424700000000     0.896620000000    -0.0339511  
C343     C      0.113350000000     0.396680000000     0.851580000000     0.0538458  
C344     C      0.065480000000     0.446230000000     0.913690000000     0.0672721  
C345     C      0.245190000000     0.301720000000     0.767550000000    -0.120138   
C346     C      0.277720000000     0.191300000000     0.670300000000     0.0785965  
C347     C      0.316470000000     0.227410000000     0.677410000000     0.0789983  
C348     C      0.265770000000     0.203440000000     0.683100000000    -0.0971076  
C349     C      0.245430000000     0.237990000000     0.694610000000    -0.0350991  
C350     C      0.233830000000     0.249900000000     0.709480000000    -0.0314748  
C351     C      0.267260000000     0.240830000000     0.709290000000    -0.00625263 
C352     C      0.305130000000     0.240060000000     0.690440000000    -0.0971342  
C353     C      0.243760000000     0.264860000000     0.739430000000    -0.0103548  
C354     C      0.205890000000     0.265610000000     0.758250000000    -0.103796   
C355     C      0.265570000000     0.267630000000     0.754140000000    -0.0312633  
C356     C      0.194560000000     0.278010000000     0.772130000000     0.0864178  
C357     C      0.233430000000     0.313690000000     0.782130000000     0.177182   
C358     C      0.277200000000     0.255790000000     0.739200000000    -0.0341476  
C359     C      0.279520000000     0.228010000000     0.693830000000     0.0529065  
C360     C      0.231450000000     0.277590000000     0.755150000000     0.0685744  
C361     C      0.473100000000     0.496370000000     0.820000000000    -0.120745   
C362     C      0.492990000000     0.474300000000     0.591930000000     0.0800734  
C363     C      0.484320000000     0.506970000000     0.592170000000     0.0822066  
C364     C      0.490260000000     0.472050000000     0.628500000000    -0.0954     
C365     C      0.475130000000     0.464480000000     0.705160000000    -0.0337656  
C366     C      0.475300000000     0.464090000000     0.742030000000    -0.0312689  
C367     C      0.483150000000     0.486730000000     0.686760000000    -0.00495546 
C368     C      0.480890000000     0.504840000000     0.628590000000    -0.0944231  
C369     C      0.482950000000     0.485810000000     0.761200000000    -0.0102062  
C370     C      0.498320000000     0.477570000000     0.817230000000    -0.103721   
C371     C      0.490440000000     0.507900000000     0.743060000000    -0.0308854  
C372     C      0.501790000000     0.480550000000     0.853580000000     0.0882532  
C373     C      0.476780000000     0.499160000000     0.856540000000     0.176098   
C374     C      0.490780000000     0.508410000000     0.706320000000    -0.0331939  
C375     C      0.484440000000     0.487630000000     0.647490000000     0.0535045  
C376     C      0.484200000000     0.485900000000     0.800080000000     0.0694745  
C377     C      0.517210000000     0.529370000000     0.316280000000    -0.12016    
C378     C      0.539030000000     0.510760000000     0.089160000000     0.0825845  
C379     C      0.507520000000     0.520890000000     0.095490000000     0.0830546  
C380     C      0.543080000000     0.512790000000     0.125530000000    -0.096335   
C381     C      0.528790000000     0.499120000000     0.204120000000    -0.0347752  
C382     C      0.528380000000     0.498630000000     0.240930000000    -0.0308719  
C383     C      0.531850000000     0.519900000000     0.185890000000    -0.00548863 
C384     C      0.511500000000     0.523650000000     0.131780000000    -0.095868   
C385     C      0.531450000000     0.519110000000     0.260300000000    -0.0100613  
C386     C      0.535130000000     0.503410000000     0.319850000000    -0.103141   
C387     C      0.535790000000     0.540380000000     0.241770000000    -0.0304443  
C388     C      0.530170000000     0.500680000000     0.355920000000     0.0851206  
C389     C      0.512400000000     0.526400000000     0.352560000000     0.173405   
C390     C      0.535680000000     0.540650000000     0.204960000000    -0.03403    
C391     C      0.529130000000     0.519180000000     0.147170000000     0.0549848  
C392     C      0.528440000000     0.517700000000     0.299380000000     0.0674033  
C393     C      0.857140000000     0.206510000000     0.975700000000    -0.119099   
C394     C      0.864330000000     0.183840000000     0.743380000000     0.0782878  
C395     C      0.825320000000     0.180800000000     0.749050000000     0.0781446  
C396     C      0.868290000000     0.187550000000     0.779630000000    -0.0962877  
C397     C      0.865250000000     0.178320000000     0.857940000000    -0.0348207  
C398     C      0.866840000000     0.178660000000     0.894670000000    -0.0321412  
C399     C      0.853110000000     0.189040000000     0.840510000000    -0.00596344 
C400     C      0.828520000000     0.184080000000     0.785490000000    -0.0957392  
C401     C      0.856010000000     0.189400000000     0.915140000000    -0.00981523 
C402     C      0.852640000000     0.166380000000     0.970850000000    -0.102092   
C403     C      0.844400000000     0.200670000000     0.897730000000    -0.031744   
C404     C      0.850910000000     0.164200000000     0.007390000000     0.0861251  
C405     C      0.854740000000     0.203700000000     0.012490000000     0.171787   
C406     C      0.843090000000     0.200610000000     0.860930000000    -0.0343814  
C407     C      0.850090000000     0.187220000000     0.801400000000     0.0518579  
C408     C      0.855650000000     0.187630000000     0.954380000000     0.0664786  
C409     C      0.801830000000     0.152190000000     0.279570000000    -0.119823   
C410     C      0.834480000000     0.144600000000     0.508280000000     0.0787033  
C411     C      0.799950000000     0.150360000000     0.510200000000     0.0776253  
C412     C      0.832850000000     0.142610000000     0.471660000000    -0.0965436  
C413     C      0.837060000000     0.157440000000     0.395780000000    -0.034867   
C414     C      0.837380000000     0.157610000000     0.359070000000    -0.0319081  
C415     C      0.814690000000     0.145780000000     0.414310000000    -0.0058064  
C416     C      0.797910000000     0.148660000000     0.473430000000    -0.0954227  
C417     C      0.815360000000     0.146270000000     0.339720000000    -0.0100924  
C418     C      0.833000000000     0.140530000000     0.284080000000    -0.10305    
C419     C      0.792890000000     0.135170000000     0.358020000000    -0.0312061  
C420     C      0.836430000000     0.143360000000     0.247800000000     0.0924448  
C421     C      0.805500000000     0.154560000000     0.242880000000     0.181261   
C422     C      0.792550000000     0.134860000000     0.395000000000    -0.0342931  
C423     C      0.814850000000     0.145320000000     0.453590000000     0.0520266  
C424     C      0.816380000000     0.146020000000     0.300620000000     0.0685391  
C425     C      0.181510000000     0.351880000000     0.643740000000    -0.121271   
C426     C      0.151820000000     0.340760000000     0.419780000000     0.0797298  
C427     C      0.154960000000     0.304740000000     0.424430000000     0.0791119  
C428     C      0.149710000000     0.341500000000     0.456330000000    -0.096279   
C429     C      0.135560000000     0.330880000000     0.534810000000    -0.0349622  
C430     C      0.137390000000     0.333850000000     0.571450000000    -0.0316823  
C431     C      0.152240000000     0.326300000000     0.516270000000    -0.00638657 
C432     C      0.153210000000     0.305120000000     0.461050000000    -0.0973419  
C433     C      0.156230000000     0.332760000000     0.589950000000    -0.0110768  
C434     C      0.138620000000     0.322370000000     0.650690000000    -0.10451    
C435     C      0.172850000000     0.328160000000     0.571350000000    -0.0318201  
C436     C      0.141930000000     0.323870000000     0.687150000000     0.0847353  
C437     C      0.184480000000     0.353030000000     0.680420000000     0.17304    
C438     C      0.170790000000     0.324830000000     0.534940000000    -0.0342853  
C439     C      0.151110000000     0.323950000000     0.477410000000     0.0533296  
C440     C      0.158640000000     0.336130000000     0.628620000000     0.067859   
C441     C      0.201040000000     0.354920000000     0.149280000000    -0.121114   
C442     C      0.166380000000     0.312800000000     0.924000000000     0.0812562  
C443     C      0.199720000000     0.353730000000     0.922930000000     0.0832031  
C444     C      0.168740000000     0.311680000000     0.960420000000    -0.095636   
C445     C      0.167060000000     0.318160000000     0.038580000000    -0.0343808  
C446     C      0.168540000000     0.318090000000     0.075270000000    -0.0314794  
C447     C      0.188310000000     0.331920000000     0.018020000000    -0.00492825 
C448     C      0.202220000000     0.353450000000     0.959450000000    -0.0944741  
C449     C      0.191170000000     0.332190000000     0.092290000000    -0.0111614  
C450     C      0.183910000000     0.311060000000     0.150210000000    -0.105277   
C451     C      0.212430000000     0.346040000000     0.072130000000    -0.0309531  
C452     C      0.183400000000     0.311630000000     0.186880000000     0.0854422  
C453     C      0.200230000000     0.355060000000     0.186260000000     0.172663   
C454     C      0.211080000000     0.345690000000     0.035350000000    -0.0335908  
C455     C      0.186550000000     0.332290000000     0.978840000000     0.0538059  
C456     C      0.192300000000     0.332770000000     0.131120000000     0.0682217  
C457     C      0.948160000000     0.199000000000     0.165460000000    -0.120181   
C458     C      0.091370000000     0.305560000000     0.266950000000     0.0795419  
C459     C      0.092110000000     0.268160000000     0.265920000000     0.0786353  
C460     C      0.067510000000     0.293730000000     0.253310000000    -0.0958208  
C461     C      0.012180000000     0.259540000000     0.243630000000    -0.0319295  
C462     C      0.988840000000     0.248290000000     0.228250000000    -0.0341056  
C463     C      0.030880000000     0.256090000000     0.229420000000    -0.00530237 
C464     C      0.068390000000     0.255840000000     0.251730000000    -0.0966155  
C465     C      0.983700000000     0.233580000000     0.197940000000    -0.0153311  
C466     C      0.946000000000     0.235080000000     0.179860000000    -0.103266   
C467     C      0.002450000000     0.230010000000     0.183920000000    -0.0218096  
C468     C      0.922480000000     0.224090000000     0.165380000000     0.0853743  
C469     C      0.924680000000     0.188560000000     0.150000000000     0.171043   
C470     C      0.025730000000     0.241030000000     0.199620000000    -0.0372956  
C471     C      0.055860000000     0.268650000000     0.245170000000     0.052801   
C472     C      0.958970000000     0.222340000000     0.180980000000     0.067581   
C473     C      0.397080000000     0.463330000000     0.433530000000    -0.119321   
C474     C      0.253460000000     0.350290000000     0.340670000000     0.0807984  
C475     C      0.252550000000     0.387600000000     0.341420000000     0.0833649  
C476     C      0.277490000000     0.362330000000     0.353810000000    -0.0960069  
C477     C      0.333030000000     0.397010000000     0.363110000000    -0.0343479  
C478     C      0.356720000000     0.409540000000     0.377460000000    -0.0305819  
C479     C      0.314190000000     0.400420000000     0.376970000000    -0.00507903 
C480     C      0.276410000000     0.400130000000     0.354960000000    -0.0950245  
C481     C      0.362050000000     0.425560000000     0.406250000000    -0.0095708  
C482     C      0.401950000000     0.428230000000     0.423940000000    -0.102605   
C483     C      0.343010000000     0.428610000000     0.420370000000    -0.0302441  
C484     C      0.425760000000     0.441460000000     0.437510000000     0.0860981  
C485     C      0.420810000000     0.476070000000     0.448010000000     0.177634   
C486     C      0.319430000000     0.416310000000     0.405780000000    -0.0337373  
C487     C      0.289110000000     0.387480000000     0.361540000000     0.0542494  
C488     C      0.387370000000     0.439220000000     0.421270000000     0.06864    
C489     C      0.532890000000     0.990220000000     0.836400000000    -0.119748   
C490     C      0.536620000000     0.016160000000     0.604250000000     0.078711   
C491     C      0.499120000000     0.978560000000     0.610160000000     0.0798107  
C492     C      0.540200000000     0.017350000000     0.640710000000    -0.0962324  
C493     C      0.534620000000     0.023550000000     0.718700000000    -0.0346953  
C494     C      0.535860000000     0.025090000000     0.755450000000    -0.032103   
C495     C      0.525280000000     0.000710000000     0.701640000000    -0.0060375  
C496     C      0.502050000000     0.979260000000     0.646710000000    -0.0953162  
C497     C      0.527640000000     0.003810000000     0.776170000000    -0.0101253  
C498     C      0.521330000000     0.021280000000     0.832110000000    -0.103085   
C499     C      0.518780000000     0.981040000000     0.759110000000    -0.0311511  
C500     C      0.519740000000     0.021360000000     0.868740000000     0.0841377  
C501     C      0.531470000000     0.990820000000     0.873330000000     0.171594   
C502     C      0.517670000000     0.979520000000     0.722330000000    -0.0335349  
C503     C      0.522640000000     0.998960000000     0.662550000000     0.0531286  
C504     C      0.527400000000     0.005190000000     0.815370000000     0.0661405  
C505     C      0.474540000000     0.006770000000     0.140250000000    -0.119871   
C506     C      0.470260000000     0.979480000000     0.372190000000     0.0821706  
C507     C      0.507880000000     0.016970000000     0.366330000000     0.080343   
C508     C      0.466570000000     0.978470000000     0.335770000000    -0.0945119  
C509     C      0.471860000000     0.972540000000     0.257620000000    -0.0339872  
C510     C      0.470660000000     0.971190000000     0.220860000000    -0.0310733  
C511     C      0.481420000000     0.995330000000     0.274900000000    -0.00481776 
C512     C      0.504860000000     0.016430000000     0.329820000000    -0.0957663  
C513     C      0.479160000000     0.992610000000     0.200370000000    -0.00953289 
C514     C      0.485420000000     0.975210000000     0.144350000000    -0.102873   
C515     C      0.488210000000     0.015320000000     0.217660000000    -0.0313471  
C516     C      0.487220000000     0.975330000000     0.107750000000     0.0851972  
C517     C      0.476200000000     0.006410000000     0.103350000000     0.171621   
C518     C      0.489240000000     0.016650000000     0.254440000000    -0.0338647  
C519     C      0.484140000000     0.996890000000     0.313970000000     0.0537802  
C520     C      0.479580000000     0.991430000000     0.161180000000     0.0670773  
C521     C      0.730300000000     0.102760000000     0.124390000000    -0.119526   
C522     C      0.585050000000     0.058320000000     0.022470000000     0.0816206  
C523     C      0.582610000000     0.020070000000     0.034550000000     0.0822729  
C524     C      0.609090000000     0.070930000000     0.035380000000    -0.0960675  
C525     C      0.664410000000     0.088210000000     0.040330000000    -0.0346356  
C526     C      0.688550000000     0.101180000000     0.052680000000    -0.0307299  
C527     C      0.645540000000     0.071070000000     0.061970000000    -0.00538722 
C528     C      0.606450000000     0.032140000000     0.048430000000    -0.0954     
C529     C      0.694410000000     0.097820000000     0.087360000000    -0.00945738 
C530     C      0.735440000000     0.136620000000     0.088250000000    -0.101802   
C531     C      0.675400000000     0.080420000000     0.108940000000    -0.0301655  
C532     C      0.760320000000     0.149270000000     0.096830000000     0.0928266  
C533     C      0.755300000000     0.116450000000     0.133640000000     0.1818     
C534     C      0.651240000000     0.067030000000     0.096230000000    -0.0342995  
C535     C      0.619960000000     0.057830000000     0.048710000000     0.054214   
C536     C      0.720280000000     0.112500000000     0.100370000000     0.0684624  
C537     C      0.180230000000     0.861380000000     0.461410000000    -0.120014   
C538     C      0.194290000000     0.830440000000     0.686580000000     0.0816055  
C539     C      0.188290000000     0.864880000000     0.688460000000     0.0808246  
C540     C      0.196940000000     0.832510000000     0.649980000000    -0.095965   
C541     C      0.214680000000     0.854080000000     0.574270000000    -0.0345509  
C542     C      0.214490000000     0.854680000000     0.537440000000    -0.0306619  
C543     C      0.194480000000     0.851540000000     0.593470000000    -0.00604348 
C544     C      0.190280000000     0.867110000000     0.651880000000    -0.0973098  
C545     C      0.193810000000     0.852170000000     0.519090000000    -0.00966381 
C546     C      0.204990000000     0.842050000000     0.460230000000    -0.101599   
C547     C      0.173550000000     0.849440000000     0.538670000000    -0.031123   
C548     C      0.203260000000     0.841080000000     0.423590000000     0.0891213  
C549     C      0.178600000000     0.860060000000     0.424520000000     0.174264   
C550     C      0.174010000000     0.849410000000     0.575430000000    -0.0344268  
C551     C      0.194350000000     0.850640000000     0.632310000000     0.054308   
C552     C      0.193070000000     0.851910000000     0.479780000000     0.0679596  
C553     C      0.154130000000     0.838990000000     0.963580000000    -0.121837   
C554     C      0.185310000000     0.821930000000     0.183820000000     0.0830153  
C555     C      0.145450000000     0.817110000000     0.188790000000     0.0810295  
C556     C      0.183180000000     0.820400000000     0.147200000000    -0.0960574  
C557     C      0.140790000000     0.797650000000     0.074280000000    -0.03482    
C558     C      0.139380000000     0.798190000000     0.037520000000    -0.0313881  
C559     C      0.159990000000     0.817430000000     0.092370000000    -0.00613592 
C560     C      0.142500000000     0.814940000000     0.152240000000    -0.0968131  
C561     C      0.156790000000     0.818780000000     0.018570000000    -0.0113593  
C562     C      0.155980000000     0.801790000000     0.958930000000    -0.103896   
C563     C      0.175800000000     0.838640000000     0.036760000000    -0.0309662  
C564     C      0.156970000000     0.804270000000     0.922360000000     0.0856003  
C565     C      0.154080000000     0.840560000000     0.926720000000     0.172177   
C566     C      0.177540000000     0.837860000000     0.073330000000    -0.0343841  
C567     C      0.161720000000     0.817140000000     0.131120000000     0.0545654  
C568     C      0.155420000000     0.819730000000     0.979840000000     0.0682386  
C569     C      0.280530000000     0.868620000000     0.849630000000    -0.119579   
C570     C      0.423490000000     0.977110000000     0.949390000000     0.0818667  
C571     C      0.424160000000     0.939690000000     0.947420000000     0.0810885  
C572     C      0.399710000000     0.965490000000     0.935460000000    -0.0949981  
C573     C      0.344440000000     0.931900000000     0.924140000000    -0.0346584  
C574     C      0.321060000000     0.920340000000     0.908770000000    -0.03113    
C575     C      0.363130000000     0.928100000000     0.910670000000    -0.00516217 
C576     C      0.400490000000     0.927570000000     0.933080000000    -0.0950384  
C577     C      0.315870000000     0.904860000000     0.879350000000    -0.00990486 
C578     C      0.277460000000     0.904690000000     0.860030000000    -0.102077   
C579     C      0.334690000000     0.901220000000     0.865810000000    -0.0308533  
C580     C      0.253940000000     0.892730000000     0.845300000000     0.0846638  
C581     C      0.257110000000     0.857160000000     0.834020000000     0.171763   
C582     C      0.357980000000     0.912600000000     0.881400000000    -0.0342704  
C583     C      0.388020000000     0.940500000000     0.926780000000     0.0536265  
C584     C      0.290940000000     0.892540000000     0.862950000000     0.0668152  
C585     C      0.828100000000     0.687530000000     0.797090000000    -0.118954   
C586     C      0.801720000000     0.646110000000     0.024450000000     0.0823667  
C587     C      0.834630000000     0.687230000000     0.020780000000     0.0802649  
C588     C      0.798780000000     0.645160000000     0.987890000000    -0.0953672  
C589     C      0.815050000000     0.646190000000     0.910640000000    -0.0342881  
C590     C      0.815850000000     0.646080000000     0.873860000000    -0.0303516  
C591     C      0.812680000000     0.664450000000     0.928510000000    -0.00550347 
C592     C      0.831800000000     0.687090000000     0.984250000000    -0.096617   
C593     C      0.813820000000     0.663980000000     0.854020000000    -0.00924716 
C594     C      0.809120000000     0.643550000000     0.795070000000    -0.100178   
C595     C      0.810490000000     0.681700000000     0.872170000000    -0.031104   
C596     C      0.813810000000     0.645060000000     0.758950000000     0.0885569  
C597     C      0.832560000000     0.688640000000     0.760720000000     0.173033   
C598     C      0.810240000000     0.682100000000     0.909010000000    -0.0345669  
C599     C      0.814090000000     0.665710000000     0.967410000000     0.0539633  
C600     C      0.816550000000     0.664940000000     0.814840000000     0.0673732  
C601     C      0.863100000000     0.655370000000     0.488240000000    -0.119904   
C602     C      0.868580000000     0.680650000000     0.255710000000     0.0783731  
C603     C      0.830450000000     0.643710000000     0.261690000000     0.0794255  
C604     C      0.872230000000     0.681670000000     0.292140000000    -0.0962217  
C605     C      0.866610000000     0.688440000000     0.369880000000    -0.0350575  
C606     C      0.867550000000     0.690130000000     0.406610000000    -0.0322425  
C607     C      0.856840000000     0.665470000000     0.353090000000    -0.00600717 
C608     C      0.833450000000     0.644250000000     0.298200000000    -0.0956962  
C609     C      0.858600000000     0.668880000000     0.427580000000    -0.0102191  
C610     C      0.852600000000     0.687150000000     0.482900000000    -0.103134   
C611     C      0.849330000000     0.645960000000     0.410810000000    -0.0316658  
C612     C      0.851230000000     0.687800000000     0.519500000000     0.0849203  
C613     C      0.861910000000     0.656540000000     0.525120000000     0.173483   
C614     C      0.848520000000     0.644280000000     0.374050000000    -0.0343562  
C615     C      0.854340000000     0.663600000000     0.314010000000     0.0522361  
C616     C      0.858150000000     0.670510000000     0.466720000000     0.066664   
C617     C      0.730820000000     0.599060000000     0.601400000000    -0.119935   
C618     C      0.586770000000     0.564050000000     0.505040000000     0.0791561  
C619     C      0.587500000000     0.526650000000     0.506800000000     0.0790076  
C620     C      0.610840000000     0.576890000000     0.517990000000    -0.095567   
C621     C      0.666820000000     0.599260000000     0.527930000000    -0.0352263  
C622     C      0.690420000000     0.611000000000     0.542670000000    -0.0314396  
C623     C      0.648170000000     0.577120000000     0.542250000000    -0.00583312 
C624     C      0.611400000000     0.538860000000     0.520230000000    -0.0965953  
C625     C      0.695810000000     0.601000000000     0.572330000000    -0.0101881  
C626     C      0.735600000000     0.638710000000     0.589060000000    -0.102532   
C627     C      0.676880000000     0.579090000000     0.587000000000    -0.031211   
C628     C      0.759380000000     0.649640000000     0.602910000000     0.0842383  
C629     C      0.754470000000     0.610420000000     0.616190000000     0.172814   
C630     C      0.653430000000     0.567220000000     0.571990000000    -0.0345037  
C631     C      0.623250000000     0.564210000000     0.526330000000     0.0528191  
C632     C      0.721090000000     0.613100000000     0.587620000000     0.0667476  
C633     C      0.944920000000     0.702220000000     0.689910000000    -0.120889   
C634     C      0.092730000000     0.814830000000     0.771980000000     0.0808651  
C635     C      0.092430000000     0.776910000000     0.770940000000     0.0804698  
C636     C      0.068630000000     0.803360000000     0.759140000000    -0.0952596  
C637     C      0.024120000000     0.776320000000     0.710450000000    -0.0371144  
C638     C      0.000370000000     0.764120000000     0.696270000000    -0.0213434  
C639     C      0.030720000000     0.765580000000     0.737750000000    -0.00469438 
C640     C      0.068290000000     0.764850000000     0.758390000000    -0.0957416  
C641     C      0.982640000000     0.740930000000     0.709200000000    -0.0147943  
C642     C      0.945150000000     0.740420000000     0.684660000000    -0.102112   
C643     C      0.989220000000     0.730390000000     0.736850000000    -0.0330532  
C644     C      0.921040000000     0.727570000000     0.672080000000     0.0899904  
C645     C      0.920570000000     0.689620000000     0.677820000000     0.177701   
C646     C      0.012970000000     0.742520000000     0.750860000000    -0.0305042  
C647     C      0.056160000000     0.778100000000     0.752050000000     0.0535547  
C648     C      0.957350000000     0.727750000000     0.694120000000     0.0704249  
H1       H      0.759610000000     0.093530000000     0.662510000000     0.0236699  
H2       H      0.735940000000     0.906620000000     0.774240000000     0.0235632  
H3       H      0.739520000000     0.032100000000     0.741970000000     0.040417   
H4       H      0.753400000000     0.966470000000     0.694250000000     0.0390865  
H5       H      0.755590000000     0.947150000000     0.748660000000     0.0563964  
H6       H      0.772870000000     0.006660000000     0.665750000000     0.0389967  
H7       H      0.689100000000     0.950080000000     0.762480000000     0.0815263  
H8       H      0.738380000000     0.052270000000     0.686800000000     0.055298   
H9       H      0.805210000000     0.048970000000     0.678260000000     0.0536243  
H10      H      0.720220000000     0.992010000000     0.770690000000     0.0424059  
H11      H      0.825830000000     0.090060000000     0.653720000000     0.0230412  
H12      H      0.901540000000     0.235070000000     0.598000000000     0.0229942  
H13      H      0.936490000000     0.428280000000     0.497010000000     0.0245939  
H14      H      0.927820000000     0.300950000000     0.526390000000     0.039401   
H15      H      0.909630000000     0.363680000000     0.574270000000     0.0389506  
H16      H      0.913840000000     0.386740000000     0.518800000000     0.0570313  
H17      H      0.887290000000     0.321720000000     0.597020000000     0.039027   
H18      H      0.980850000000     0.384050000000     0.524800000000     0.078769   
H19      H      0.924000000000     0.277260000000     0.578060000000     0.054061   
H20      H      0.856880000000     0.280400000000     0.580710000000     0.0540789  
H21      H      0.950290000000     0.342900000000     0.504070000000     0.0423655  
H22      H      0.835020000000     0.238300000000     0.601580000000     0.0234296  
H23      H      0.076310000000     0.571990000000     0.438870000000     0.0282493  
H24      H      0.108240000000     0.764680000000     0.341040000000     0.0258464  
H25      H      0.095790000000     0.633630000000     0.358640000000     0.0419832  
H26      H      0.084480000000     0.699260000000     0.412620000000     0.0395907  
H27      H      0.086000000000     0.723270000000     0.363170000000     0.0573629  
H28      H      0.062850000000     0.657800000000     0.437250000000     0.0410956  
H29      H      0.148800000000     0.714750000000     0.343090000000     0.0800252  
H30      H      0.097450000000     0.613600000000     0.416020000000     0.0576548  
H31      H      0.029380000000     0.614770000000     0.418770000000     0.0561068  
H32      H      0.116760000000     0.674730000000     0.333160000000     0.0425596  
H33      H      0.008590000000     0.572970000000     0.441470000000     0.025544   
H34      H      0.670070000000     0.763300000000     0.833490000000     0.0240881  
H35      H      0.511100000000     0.574960000000     0.946070000000     0.0353522  
H36      H      0.631500000000     0.699910000000     0.909820000000     0.0403689  
H37      H      0.550720000000     0.634900000000     0.864950000000     0.0425246  
H38      H      0.531340000000     0.615550000000     0.920880000000     0.0615749  
H39      H      0.570310000000     0.675580000000     0.837880000000     0.0412725  
H40      H      0.600520000000     0.617030000000     0.925720000000     0.0796729  
H41      H      0.651010000000     0.721530000000     0.855450000000     0.055342   
H42      H      0.580330000000     0.717390000000     0.852120000000     0.0568914  
H43      H      0.611910000000     0.659270000000     0.936890000000     0.0425279  
H44      H      0.599870000000     0.759060000000     0.829610000000     0.0278508  
H45      H      0.341440000000     0.099050000000     0.177340000000     0.028629   
H46      H      0.180530000000     0.905790000000     0.273410000000     0.0279011  
H47      H      0.300200000000     0.034520000000     0.252970000000     0.0421109  
H48      H      0.222660000000     0.969810000000     0.199230000000     0.0395669  
H49      H      0.200590000000     0.947250000000     0.251230000000     0.0584744  
H50      H      0.242640000000     0.011360000000     0.175060000000     0.0418273  
H51      H      0.270920000000     0.952100000000     0.264970000000     0.080816   
H52      H      0.321990000000     0.057230000000     0.199340000000     0.057961   
H53      H      0.251320000000     0.052840000000     0.191990000000     0.0566976  
H54      H      0.280120000000     0.993080000000     0.277440000000     0.0436835  
H55      H      0.271250000000     0.094590000000     0.169730000000     0.0296498  
H56      H      0.338400000000     0.238170000000     0.104960000000     0.0260713  
H57      H      0.499870000000     0.428520000000     0.001540000000     0.0242008  
H58      H      0.378780000000     0.302730000000     0.029790000000     0.040809   
H59      H      0.458330000000     0.366710000000     0.079540000000     0.0388844  
H60      H      0.479080000000     0.387310000000     0.024660000000     0.0568078  
H61      H      0.438080000000     0.325490000000     0.104760000000     0.0402223  
H62      H      0.410060000000     0.386050000000     0.018130000000     0.0804971  
H63      H      0.357820000000     0.279870000000     0.082570000000     0.056049   
H64      H      0.428460000000     0.284110000000     0.089640000000     0.0554681  
H65      H      0.399020000000     0.344010000000     0.004640000000     0.0427311  
H66      H      0.408570000000     0.242590000000     0.112590000000     0.0281618  
H67      H      0.641330000000     0.787270000000     0.409580000000     0.0284318  
H68      H      0.693780000000     0.812330000000     0.705960000000     0.0225285  
H69      H      0.680410000000     0.856020000000     0.521980000000     0.0416156  
H70      H      0.665410000000     0.782050000000     0.589620000000     0.0397578  
H71      H      0.695530000000     0.808460000000     0.642610000000     0.0571516  
H72      H      0.668600000000     0.782110000000     0.525050000000     0.0403525  
H73      H      0.641200000000     0.830410000000     0.629550000000     0.0811329  
H74      H      0.642230000000     0.784350000000     0.473350000000     0.0573893  
H75      H      0.709580000000     0.854110000000     0.475890000000     0.0556826  
H76      H      0.677010000000     0.855850000000     0.586060000000     0.0429222  
H77      H      0.708400000000     0.856460000000     0.412190000000     0.0262383  
H78      H      0.639400000000     0.850850000000     0.908460000000     0.0319688  
H79      H      0.694430000000     0.876910000000     0.204300000000     0.0298157  
H80      H      0.665150000000     0.813400000000     0.025300000000     0.0418179  
H81      H      0.666820000000     0.883450000000     0.088510000000     0.0427786  
H82      H      0.695860000000     0.880450000000     0.140870000000     0.0602001  
H83      H      0.670200000000     0.884540000000     0.023900000000     0.0430325  
H84      H      0.626440000000     0.813600000000     0.133550000000     0.0831371  
H85      H      0.638230000000     0.853760000000     0.972250000000     0.0597718  
H86      H      0.701970000000     0.845120000000     0.980240000000     0.0559172  
H87      H      0.661090000000     0.812000000000     0.089620000000     0.0448145  
H88      H      0.703190000000     0.842930000000     0.916390000000     0.0238768  
H89      H      0.763310000000     0.665920000000     0.171820000000     0.0253603  
H90      H      0.735720000000     0.827130000000     0.280260000000     0.0242801  
H91      H      0.730970000000     0.717940000000     0.172960000000     0.0410758  
H92      H      0.767780000000     0.776170000000     0.272760000000     0.0378263  
H93      H      0.756990000000     0.806750000000     0.258800000000     0.0561068  
H94      H      0.789140000000     0.755810000000     0.249000000000     0.0387323  
H95      H      0.687730000000     0.740120000000     0.245080000000     0.0800209  
H96      H      0.741990000000     0.686510000000     0.193770000000     0.0562102  
H97      H      0.810310000000     0.755440000000     0.192540000000     0.0540784  
H98      H      0.709890000000     0.738710000000     0.195920000000     0.0428161  
H99      H      0.831160000000     0.734400000000     0.170540000000     0.0231866  
H100     H      0.574560000000     0.997970000000     0.455830000000     0.0239092  
H101     H      0.600610000000     0.835810000000     0.347030000000     0.0286081  
H102     H      0.594200000000     0.956120000000     0.377670000000     0.0406883  
H103     H      0.583370000000     0.878280000000     0.427750000000     0.0400817  
H104     H      0.580810000000     0.856160000000     0.373900000000     0.0593191  
H105     H      0.563480000000     0.898660000000     0.456200000000     0.0408891  
H106     H      0.645900000000     0.926150000000     0.356750000000     0.0798714  
H107     H      0.596120000000     0.978050000000     0.432500000000     0.055439   
H108     H      0.530140000000     0.907640000000     0.444000000000     0.0561256  
H109     H      0.613850000000     0.935690000000     0.349010000000     0.0429091  
H110     H      0.509120000000     0.928050000000     0.467600000000     0.0258017  
H111     H      0.973460000000     0.509390000000     0.573430000000     0.0250416  
H112     H      0.044250000000     0.543570000000     0.867930000000     0.0270113  
H113     H      0.986200000000     0.538330000000     0.685780000000     0.0410511  
H114     H      0.034510000000     0.510280000000     0.755530000000     0.0417482  
H115     H      0.046510000000     0.547110000000     0.804380000000     0.0603434  
H116     H      0.035670000000     0.509060000000     0.691520000000     0.0411645  
H117     H      0.968190000000     0.500420000000     0.797710000000     0.0812822  
H118     H      0.973460000000     0.513640000000     0.636570000000     0.0561637  
H119     H      0.049160000000     0.530540000000     0.639530000000     0.0564412  
H120     H      0.983990000000     0.537880000000     0.750010000000     0.0435249  
H121     H      0.047900000000     0.524510000000     0.576530000000     0.0276063  
H122     H      0.042960000000     0.525870000000     0.080080000000     0.0290142  
H123     H      0.973320000000     0.492280000000     0.360950000000     0.023666   
H124     H      0.046110000000     0.498140000000     0.190550000000     0.042292   
H125     H      0.964720000000     0.463590000000     0.248550000000     0.0392075  
H126     H      0.973960000000     0.489970000000     0.297810000000     0.0569076  
H127     H      0.967190000000     0.466110000000     0.184640000000     0.039741   
H128     H      0.030370000000     0.470250000000     0.304600000000     0.0811802  
H129     H      0.041930000000     0.520510000000     0.143200000000     0.0570915  
H130     H      0.975380000000     0.450390000000     0.132470000000     0.0561572  
H131     H      0.043780000000     0.497020000000     0.254560000000     0.0434111  
H132     H      0.976500000000     0.456740000000     0.069380000000     0.0257646  
H133     H      0.936510000000     0.507640000000     0.993920000000     0.03012    
H134     H      0.904160000000     0.662890000000     0.114070000000     0.0229777  
H135     H      0.904030000000     0.558600000000     0.001890000000     0.0424493  
H136     H      0.938740000000     0.613360000000     0.105720000000     0.038119   
H137     H      0.926770000000     0.644100000000     0.091490000000     0.0562137  
H138     H      0.961030000000     0.594450000000     0.080260000000     0.0389261  
H139     H      0.859160000000     0.575540000000     0.079790000000     0.0793858  
H140     H      0.914780000000     0.527430000000     0.016780000000     0.0572689  
H141     H      0.983740000000     0.595210000000     0.027270000000     0.0540489  
H142     H      0.881800000000     0.577490000000     0.027250000000     0.0428287  
H143     H      0.005060000000     0.574750000000     0.004820000000     0.0290941  
H144     H      0.300250000000     0.123920000000     0.743740000000     0.023643   
H145     H      0.373880000000     0.166150000000     0.037050000000     0.0236459  
H146     H      0.303420000000     0.150650000000     0.858680000000     0.040721   
H147     H      0.365910000000     0.139840000000     0.923870000000     0.038243   
H148     H      0.373940000000     0.163250000000     0.973970000000     0.0560726  
H149     H      0.367200000000     0.141690000000     0.859630000000     0.0395032  
H150     H      0.294850000000     0.127200000000     0.973590000000     0.0789911  
H151     H      0.299030000000     0.118940000000     0.807330000000     0.0557165  
H152     H      0.374180000000     0.177770000000     0.813750000000     0.0547432  
H153     H      0.302800000000     0.150380000000     0.922800000000     0.0418188  
H154     H      0.374760000000     0.182830000000     0.750170000000     0.0230416  
H155     H      0.365490000000     0.215950000000     0.542390000000     0.0230327  
H156     H      0.310010000000     0.185550000000     0.241140000000     0.0241725  
H157     H      0.377160000000     0.212280000000     0.426970000000     0.0390072  
H158     H      0.301310000000     0.167940000000     0.355420000000     0.0376283  
H159     H      0.308330000000     0.189900000000     0.303780000000     0.0554972  
H160     H      0.298110000000     0.166880000000     0.418980000000     0.037937   
H161     H      0.378720000000     0.194230000000     0.314360000000     0.0786945  
H162     H      0.366490000000     0.222510000000     0.479470000000     0.0533505  
H163     H      0.304460000000     0.149120000000     0.467510000000     0.0538798  
H164     H      0.380060000000     0.215570000000     0.363460000000     0.0407932  
H165     H      0.303040000000     0.143960000000     0.530500000000     0.0235355  
H166     H      0.335880000000     0.095500000000     0.610400000000     0.0239179  
H167     H      0.499390000000     0.065810000000     0.518700000000     0.0229036  
H168     H      0.378500000000     0.072730000000     0.537430000000     0.0407178  
H169     H      0.456090000000     0.086660000000     0.592710000000     0.0378669  
H170     H      0.478650000000     0.086720000000     0.540390000000     0.0561124  
H171     H      0.435320000000     0.107640000000     0.616260000000     0.038493   
H172     H      0.409000000000     0.020440000000     0.527690000000     0.0799072  
H173     H      0.356040000000     0.073380000000     0.590150000000     0.0554031  
H174     H      0.426230000000     0.139980000000     0.598850000000     0.0539234  
H175     H      0.399330000000     0.051900000000     0.513700000000     0.0427313  
H176     H      0.405600000000     0.161520000000     0.619430000000     0.023215   
H177     H      0.169970000000     0.407700000000     0.828180000000     0.0281102  
H178     H      0.008750000000     0.437320000000     0.930440000000     0.0272287  
H179     H      0.128260000000     0.427220000000     0.908310000000     0.0420923  
H180     H      0.050710000000     0.415670000000     0.856100000000     0.0395502  
H181     H      0.028390000000     0.416070000000     0.906340000000     0.0581879  
H182     H      0.070710000000     0.394530000000     0.830270000000     0.0404428  
H183     H      0.099210000000     0.479320000000     0.926940000000     0.080032   
H184     H      0.149480000000     0.429110000000     0.850000000000     0.0579498  
H185     H      0.080450000000     0.360930000000     0.848950000000     0.0554517  
H186     H      0.107970000000     0.447640000000     0.935030000000     0.0431157  
H187     H      0.101470000000     0.339870000000     0.827340000000     0.0238386  
H188     H      0.336370000000     0.237410000000     0.675600000000     0.0236545  
H189     H      0.174630000000     0.268040000000     0.772890000000     0.0234838  
H190     H      0.293780000000     0.258000000000     0.751490000000     0.0403521  
H191     H      0.217250000000     0.247670000000     0.697200000000     0.0389188  
H192     H      0.194570000000     0.246710000000     0.749830000000     0.0564863  
H193     H      0.237480000000     0.226810000000     0.671330000000     0.0387792  
H194     H      0.265090000000     0.311260000000     0.766350000000     0.0816271  
H195     H      0.316400000000     0.259180000000     0.697870000000     0.0555093  
H196     H      0.245930000000     0.193400000000     0.685460000000     0.0539364  
H197     H      0.273480000000     0.278660000000     0.777560000000     0.0424757  
H198     H      0.266400000000     0.172160000000     0.662890000000     0.0232191  
H199     H      0.481780000000     0.520820000000     0.578800000000     0.0316168  
H200     H      0.513050000000     0.473930000000     0.865740000000     0.0251604  
H201     H      0.497680000000     0.526020000000     0.693380000000     0.0409126  
H202     H      0.469350000000     0.446820000000     0.755570000000     0.0412849  
H203     H      0.507330000000     0.469530000000     0.802480000000     0.0589029  
H204     H      0.468690000000     0.447310000000     0.691190000000     0.0396825  
H205     H      0.462470000000     0.503390000000     0.806970000000     0.0825322  
H206     H      0.475630000000     0.516810000000     0.641760000000     0.0581763  
H207     H      0.493530000000     0.458650000000     0.641740000000     0.0538438  
H208     H      0.496780000000     0.524960000000     0.757360000000     0.0439388  
H209     H      0.497940000000     0.462160000000     0.578460000000     0.0235684  
H210     H      0.493330000000     0.524060000000     0.084710000000     0.0289393  
H211     H      0.535890000000     0.489550000000     0.370620000000     0.0221985  
H212     H      0.538300000000     0.556960000000     0.191360000000     0.044083   
H213     H      0.524600000000     0.481770000000     0.254030000000     0.0385007  
H214     H      0.544220000000     0.494320000000     0.308200000000     0.0562821  
H215     H      0.525570000000     0.482810000000     0.189880000000     0.0406458  
H216     H      0.510660000000     0.539580000000     0.301100000000     0.0811398  
H217     H      0.500290000000     0.528500000000     0.147840000000     0.0596497  
H218     H      0.556930000000     0.509270000000     0.136670000000     0.0570288  
H219     H      0.538860000000     0.556740000000     0.255640000000     0.0438704  
H220     H      0.550070000000     0.505570000000     0.073270000000     0.027608   
H221     H      0.808160000000     0.178000000000     0.738050000000     0.0234794  
H222     H      0.848510000000     0.147190000000     0.018390000000     0.0292004  
H223     H      0.833980000000     0.209470000000     0.848540000000     0.0393839  
H224     H      0.876320000000     0.170170000000     0.907020000000     0.0390424  
H225     H      0.850960000000     0.151030000000     0.955620000000     0.0577907  
H226     H      0.872970000000     0.168970000000     0.843340000000     0.0383291  
H227     H      0.859640000000     0.223340000000     0.963920000000     0.0783343  
H228     H      0.813730000000     0.183340000000     0.801090000000     0.0540684  
H229     H      0.885540000000     0.190530000000     0.790430000000     0.0533123  
H230     H      0.835620000000     0.208930000000     0.912490000000     0.0416684  
H231     H      0.878800000000     0.183890000000     0.727720000000     0.0228558  
H232     H      0.786890000000     0.153630000000     0.524450000000     0.0235326  
H233     H      0.850430000000     0.140270000000     0.236120000000     0.0241945  
H234     H      0.774990000000     0.125640000000     0.408400000000     0.0398846  
H235     H      0.854980000000     0.166820000000     0.345750000000     0.0393312  
H236     H      0.843930000000     0.134830000000     0.299280000000     0.0592151  
H237     H      0.854450000000     0.166700000000     0.409640000000     0.0387768  
H238     H      0.788010000000     0.155430000000     0.291440000000     0.0789642  
H239     H      0.783700000000     0.150890000000     0.460650000000     0.0541906  
H240     H      0.845900000000     0.139270000000     0.457590000000     0.0538774  
H241     H      0.775630000000     0.126240000000     0.343770000000     0.0429639  
H242     H      0.849060000000     0.142900000000     0.520930000000     0.0230476  
H243     H      0.157150000000     0.290140000000     0.412910000000     0.0232956  
H244     H      0.125840000000     0.312690000000     0.703220000000     0.0224751  
H245     H      0.184060000000     0.321590000000     0.521250000000     0.0404714  
H246     H      0.124370000000     0.337380000000     0.585250000000     0.0401735  
H247     H      0.120640000000     0.309890000000     0.639860000000     0.0568717  
H248     H      0.121060000000     0.332050000000     0.521000000000     0.0405885  
H249     H      0.197360000000     0.362520000000     0.627010000000     0.0811801  
H250     H      0.154000000000     0.291000000000     0.476520000000     0.0543679  
H251     H      0.148100000000     0.356370000000     0.468070000000     0.0573545  
H252     H      0.187360000000     0.326950000000     0.585060000000     0.0427498  
H253     H      0.151450000000     0.355170000000     0.404470000000     0.0262645  
H254     H      0.212070000000     0.370590000000     0.909130000000     0.0301204  
H255     H      0.175870000000     0.294140000000     0.200500000000     0.0222075  
H256     H      0.227940000000     0.356130000000     0.020580000000     0.0426624  
H257     H      0.151870000000     0.307490000000     0.090430000000     0.0402229  
H258     H      0.177340000000     0.293640000000     0.136820000000     0.0577988  
H259     H      0.149100000000     0.307790000000     0.026500000000     0.0392978  
H260     H      0.208440000000     0.372040000000     0.134750000000     0.0820053  
H261     H      0.216010000000     0.370020000000     0.972340000000     0.0580248  
H262     H      0.156610000000     0.294650000000     0.973900000000     0.0545537  
H263     H      0.230110000000     0.356930000000     0.084860000000     0.0440015  
H264     H      0.152180000000     0.296500000000     0.910960000000     0.0242301  
H265     H      0.101190000000     0.257550000000     0.270430000000     0.0234266  
H266     H      0.913160000000     0.234710000000     0.166290000000     0.027875   
H267     H      0.039900000000     0.238270000000     0.187900000000     0.0414351  
H268     H      0.974770000000     0.251040000000     0.240330000000     0.038727   
H269     H      0.953890000000     0.253540000000     0.190320000000     0.0578771  
H270     H      0.015570000000     0.270800000000     0.266870000000     0.0403721  
H271     H      0.957910000000     0.188820000000     0.165050000000     0.078214   
H272     H      0.059870000000     0.236360000000     0.246090000000     0.0551187  
H273     H      0.058460000000     0.304310000000     0.248430000000     0.0569765  
H274     H      0.999370000000     0.219160000000     0.160340000000     0.0369253  
H275     H      0.099820000000     0.325070000000     0.272400000000     0.0270415  
H276     H      0.243380000000     0.398130000000     0.336930000000     0.0305938  
H277     H      0.436400000000     0.432160000000     0.438100000000     0.0240545  
H278     H      0.305160000000     0.418970000000     0.417380000000     0.0422557  
H279     H      0.370960000000     0.406990000000     0.365550000000     0.0399044  
H280     H      0.395060000000     0.409410000000     0.415620000000     0.0566129  
H281     H      0.329560000000     0.385030000000     0.340710000000     0.0412344  
H282     H      0.386170000000     0.472320000000     0.432400000000     0.0821317  
H283     H      0.284900000000     0.419660000000     0.360160000000     0.0594484  
H284     H      0.286670000000     0.351880000000     0.358670000000     0.0548987  
H285     H      0.346200000000     0.440320000000     0.443010000000     0.0435093  
H286     H      0.245010000000     0.330740000000     0.335550000000     0.0241756  
H287     H      0.482690000000     0.963170000000     0.599190000000     0.0272936  
H288     H      0.513960000000     0.033500000000     0.880120000000     0.0238249  
H289     H      0.510710000000     0.961660000000     0.710140000000     0.041345   
H290     H      0.543150000000     0.042990000000     0.767610000000     0.0381007  
H291     H      0.516840000000     0.033170000000     0.817020000000     0.0561401  
H292     H      0.540420000000     0.040250000000     0.703720000000     0.0382634  
H293     H      0.539020000000     0.978600000000     0.824260000000     0.0806385  
H294     H      0.487820000000     0.964750000000     0.662450000000     0.0563017  
H295     H      0.556660000000     0.032690000000     0.651640000000     0.0539847  
H296     H      0.512080000000     0.964230000000     0.774160000000     0.0433867  
H297     H      0.550550000000     0.030960000000     0.588470000000     0.0233405  
H298     H      0.524400000000     0.032250000000     0.377290000000     0.024376   
H299     H      0.492820000000     0.963060000000     0.096290000000     0.0249371  
H300     H      0.496370000000     0.034470000000     0.266810000000     0.0408848  
H301     H      0.463210000000     0.953330000000     0.208520000000     0.0403348  
H302     H      0.489570000000     0.963040000000     0.159350000000     0.0576308  
H303     H      0.465880000000     0.955740000000     0.272420000000     0.0407064  
H304     H      0.468580000000     0.018530000000     0.152440000000     0.080083   
H305     H      0.519120000000     0.030950000000     0.314110000000     0.0549905  
H306     H      0.450020000000     0.963260000000     0.324840000000     0.0582282  
H307     H      0.495120000000     0.032230000000     0.202800000000     0.0425857  
H308     H      0.456310000000     0.964680000000     0.387950000000     0.0309675  
H309     H      0.572780000000     0.000140000000     0.034640000000     0.0287376  
H310     H      0.771770000000     0.167240000000     0.085090000000     0.0283443  
H311     H      0.636900000000     0.053930000000     0.113430000000     0.0419806  
H312     H      0.702650000000     0.113750000000     0.034750000000     0.0396868  
H313     H      0.728350000000     0.145570000000     0.071360000000     0.0594605  
H314     H      0.660490000000     0.091380000000     0.013640000000     0.0419488  
H315     H      0.719010000000     0.084750000000     0.135940000000     0.0790063  
H316     H      0.614400000000     0.021450000000     0.058330000000     0.0585597  
H317     H      0.619050000000     0.090860000000     0.035240000000     0.056797   
H318     H      0.679000000000     0.077430000000     0.135850000000     0.0426036  
H319     H      0.577290000000     0.069200000000     0.012610000000     0.0263516  
H320     H      0.184760000000     0.877810000000     0.702590000000     0.0249871  
H321     H      0.212130000000     0.832460000000     0.409830000000     0.0297545  
H322     H      0.158090000000     0.847140000000     0.589810000000     0.0412985  
H323     H      0.230650000000     0.857300000000     0.523480000000     0.0413988  
H324     H      0.214980000000     0.834270000000     0.473030000000     0.0596961  
H325     H      0.230720000000     0.855900000000     0.587790000000     0.0429296  
H326     H      0.172090000000     0.870540000000     0.475520000000     0.0796376  
H327     H      0.188360000000     0.881460000000     0.638920000000     0.0566498  
H328     H      0.200100000000     0.819480000000     0.635500000000     0.0583367  
H329     H      0.157050000000     0.846860000000     0.525710000000     0.0420827  
H330     H      0.195760000000     0.815750000000     0.699300000000     0.0303027  
H331     H      0.130370000000     0.815920000000     0.204260000000     0.0248849  
H332     H      0.158550000000     0.790420000000     0.907360000000     0.0272245  
H333     H      0.192390000000     0.853370000000     0.086850000000     0.04247    
H334     H      0.124560000000     0.782710000000     0.023920000000     0.0406211  
H335     H      0.156720000000     0.786460000000     0.970810000000     0.0596912  
H336     H      0.127090000000     0.781730000000     0.088550000000     0.0412988  
H337     H      0.152490000000     0.852420000000     0.979540000000     0.0808642  
H338     H      0.125640000000     0.812420000000     0.140520000000     0.0564159  
H339     H      0.198340000000     0.822020000000     0.131500000000     0.0591847  
H340     H      0.189470000000     0.854640000000     0.022580000000     0.0435199  
H341     H      0.202390000000     0.824790000000     0.195220000000     0.0314154  
H342     H      0.433170000000     0.928990000000     0.951700000000     0.0278517  
H343     H      0.244130000000     0.902860000000     0.844620000000     0.0270716  
H344     H      0.372130000000     0.909620000000     0.870110000000     0.0416935  
H345     H      0.306960000000     0.923270000000     0.920300000000     0.0400937  
H346     H      0.284970000000     0.923450000000     0.869090000000     0.0576551  
H347     H      0.347810000000     0.943560000000     0.946910000000     0.0419916  
H348     H      0.290650000000     0.858820000000     0.850820000000     0.0799111  
H349     H      0.391960000000     0.908140000000     0.927100000000     0.0575677  
H350     H      0.390750000000     0.976180000000     0.930800000000     0.0566244  
H351     H      0.331590000000     0.889860000000     0.842780000000     0.0425781  
H352     H      0.431950000000     0.996550000000     0.955290000000     0.0298837  
H353     H      0.849000000000     0.703940000000     0.032730000000     0.023792   
H354     H      0.807580000000     0.627920000000     0.744860000000     0.0337372  
H355     H      0.808200000000     0.696250000000     0.922300000000     0.0409015  
H356     H      0.818940000000     0.632420000000     0.861170000000     0.0414292  
H357     H      0.799650000000     0.625570000000     0.807290000000     0.0603549  
H358     H      0.817230000000     0.632530000000     0.925190000000     0.0435144  
H359     H      0.835150000000     0.704570000000     0.811630000000     0.078781   
H360     H      0.844010000000     0.703310000000     0.969140000000     0.0562485  
H361     H      0.784790000000     0.628360000000     0.975660000000     0.0591302  
H362     H      0.808280000000     0.695440000000     0.858000000000     0.0416854  
H363     H      0.789710000000     0.629640000000     0.039290000000     0.0323529  
H364     H      0.813730000000     0.628660000000     0.250770000000     0.0263529  
H365     H      0.845970000000     0.700460000000     0.530490000000     0.0234678  
H366     H      0.841200000000     0.626320000000     0.362070000000     0.0404572  
H367     H      0.875180000000     0.708130000000     0.418560000000     0.0380842  
H368     H      0.848470000000     0.699150000000     0.467400000000     0.0560197  
H369     H      0.872950000000     0.705140000000     0.354680000000     0.0381789  
H370     H      0.868740000000     0.643230000000     0.476510000000     0.0800654  
H371     H      0.818980000000     0.629980000000     0.313960000000     0.0553054  
H372     H      0.888940000000     0.696690000000     0.303050000000     0.0536394  
H373     H      0.842100000000     0.629180000000     0.426070000000     0.0430603  
H374     H      0.882710000000     0.695260000000     0.239910000000     0.0231262  
H375     H      0.578980000000     0.506970000000     0.502850000000     0.0238728  
H376     H      0.770000000000     0.669560000000     0.602460000000     0.0246687  
H377     H      0.639270000000     0.550390000000     0.583950000000     0.0407543  
H378     H      0.704560000000     0.627640000000     0.530340000000     0.0384901  
H379     H      0.728700000000     0.650400000000     0.579540000000     0.0564615  
H380     H      0.663290000000     0.607210000000     0.504860000000     0.0402965  
H381     H      0.719980000000     0.579170000000     0.601270000000     0.07969    
H382     H      0.620540000000     0.528460000000     0.525890000000     0.0555333  
H383     H      0.619390000000     0.596520000000     0.522410000000     0.0559411  
H384     H      0.680060000000     0.571120000000     0.610320000000     0.0421715  
H385     H      0.577620000000     0.574480000000     0.499610000000     0.0273138  
H386     H      0.101160000000     0.765940000000     0.775050000000     0.0259999  
H387     H      0.912500000000     0.738400000000     0.665470000000     0.0311174  
H388     H      0.017390000000     0.733930000000     0.772240000000     0.0416609  
H389     H      0.996050000000     0.772660000000     0.674740000000     0.0349046  
H390     H      0.953940000000     0.760180000000     0.687700000000     0.0591613  
H391     H      0.037490000000     0.793950000000     0.699510000000     0.0412506  
H392     H      0.953940000000     0.691830000000     0.696450000000     0.0800027  
H393     H      0.059390000000     0.745320000000     0.752980000000     0.0566556  
H394     H      0.059800000000     0.814220000000     0.755000000000     0.0567118  
H395     H      0.975920000000     0.712830000000     0.748040000000     0.0434964  
H396     H      0.101740000000     0.834430000000     0.776970000000     0.0282756  
N1       N      0.701010000000     0.904400000000     0.782940000000    -0.215059   
N2       N      0.794380000000     0.095010000000     0.656690000000    -0.208134   
N3       N      0.664690000000     0.908280000000     0.796800000000    -0.0312942  
N4       N      0.971950000000     0.430670000000     0.498000000000    -0.21439    
N5       N      0.866570000000     0.233450000000     0.601020000000    -0.20826    
N6       N      0.009830000000     0.427850000000     0.499140000000    -0.0313638  
N7       N      0.141450000000     0.764070000000     0.328960000000    -0.215473   
N8       N      0.040820000000     0.569270000000     0.441560000000    -0.207286   
N9       N      0.175400000000     0.757140000000     0.311600000000    -0.0318718  
N10      N      0.543700000000     0.571910000000     0.950240000000    -0.214478   
N11      N      0.636460000000     0.764440000000     0.830360000000    -0.207692   
N12      N      0.584020000000     0.574790000000     0.958780000000    -0.0321449  
N13      N      0.213770000000     0.904480000000     0.282020000000    -0.214675   
N14      N      0.307840000000     0.100020000000     0.172090000000    -0.206504   
N15      N      0.254330000000     0.909190000000     0.295750000000    -0.0324178  
N16      N      0.467390000000     0.431690000000     0.996680000000    -0.215787   
N17      N      0.371990000000     0.237190000000     0.110270000000    -0.207145   
N18      N      0.427270000000     0.429110000000     0.987230000000    -0.0326801  
N19      N      0.666660000000     0.823720000000     0.704660000000    -0.216899   
N20      N      0.674480000000     0.822330000000     0.406220000000    -0.207579   
N21      N      0.637560000000     0.838960000000     0.696170000000    -0.0333082  
N22      N      0.659880000000     0.842910000000     0.206240000000    -0.21444    
N23      N      0.671170000000     0.846340000000     0.907740000000    -0.207367   
N24      N      0.617880000000     0.807210000000     0.201770000000    -0.0312559  
N25      N      0.699330000000     0.795950000000     0.274430000000    -0.215805   
N26      N      0.798840000000     0.698570000000     0.169740000000    -0.208467   
N27      N      0.659810000000     0.758440000000     0.261600000000    -0.032623   
N28      N      0.634800000000     0.868880000000     0.336340000000    -0.215345   
N29      N      0.540130000000     0.964550000000     0.462940000000    -0.208069   
N30      N      0.670150000000     0.909320000000     0.320870000000    -0.0321821  
N31      N      0.005120000000     0.519190000000     0.869900000000    -0.215421   
N32      N      0.010520000000     0.516200000000     0.570340000000    -0.206654   
N33      N      0.959880000000     0.495390000000     0.866430000000    -0.0326939  
N34      N      0.002060000000     0.483670000000     0.369900000000    -0.21494    
N35      N      0.009610000000     0.491920000000     0.070050000000    -0.206273   
N36      N      0.031840000000     0.469020000000     0.373690000000    -0.0334422  
N37      N      0.868470000000     0.630530000000     0.109500000000    -0.21614    
N38      N      0.972420000000     0.539630000000     0.997980000000    -0.20596    
N39      N      0.829750000000     0.591830000000     0.098210000000    -0.0318953  
N40      N      0.334700000000     0.149860000000     0.042090000000    -0.216394   
N41      N      0.337480000000     0.153960000000     0.742280000000    -0.208265   
N42      N      0.289420000000     0.126550000000     0.042370000000    -0.0326912  
N43      N      0.345190000000     0.187410000000     0.240880000000    -0.215331   
N44      N      0.334370000000     0.179410000000     0.541110000000    -0.208213   
N45      N      0.387710000000     0.195320000000     0.246970000000    -0.0314751  
N46      N      0.466520000000     0.030930000000     0.510700000000    -0.216288   
N47      N      0.369190000000     0.130200000000     0.616140000000    -0.208516   
N48      N      0.426290000000     0.994530000000     0.497510000000    -0.032097   
N49      N      0.042270000000     0.470640000000     0.943010000000    -0.215522   
N50      N      0.137320000000     0.372120000000     0.826660000000    -0.20786    
N51      N      0.082960000000     0.504770000000     0.960580000000    -0.0318989  
N52      N      0.208000000000     0.302130000000     0.782800000000    -0.215502   
N53      N      0.302910000000     0.203080000000     0.667980000000    -0.208455   
N54      N      0.248570000000     0.337310000000     0.798170000000    -0.0315258  
N55      N      0.491230000000     0.491240000000     0.873240000000    -0.215691   
N56      N      0.490660000000     0.492050000000     0.574020000000    -0.207542   
N57      N      0.467480000000     0.512880000000     0.874740000000    -0.032191   
N58      N      0.519150000000     0.512180000000     0.372350000000    -0.216965   
N59      N      0.521000000000     0.514240000000     0.074360000000    -0.207024   
N60      N      0.497930000000     0.536170000000     0.367130000000    -0.0335573  
N61      N      0.851620000000     0.182420000000     0.028400000000    -0.214368   
N62      N      0.842860000000     0.180140000000     0.728230000000    -0.207911   
N63      N      0.854520000000     0.223040000000     0.032240000000    -0.0313395  
N64      N      0.824140000000     0.152070000000     0.228100000000    -0.218426   
N65      N      0.818560000000     0.149060000000     0.527410000000    -0.207689   
N66      N      0.789030000000     0.158650000000     0.221090000000    -0.0391516  
N67      N      0.164580000000     0.338900000000     0.702110000000    -0.216838   
N68      N      0.155140000000     0.322920000000     0.404020000000    -0.208367   
N69      N      0.209070000000     0.367070000000     0.693880000000    -0.0332522  
N70      N      0.190230000000     0.333150000000     0.204750000000    -0.217051   
N71      N      0.181650000000     0.333720000000     0.905400000000    -0.207497   
N72      N      0.211480000000     0.378440000000     0.203960000000    -0.0328566  
N73      N      0.911330000000     0.200670000000     0.151670000000    -0.214795   
N74      N      0.103680000000     0.292920000000     0.273000000000    -0.207501   
N75      N      0.915790000000     0.165760000000     0.131380000000    -0.0316899  
N76      N      0.435550000000     0.465420000000     0.448600000000    -0.214485   
N77      N      0.240990000000     0.362780000000     0.334800000000    -0.206452   
N78      N      0.428380000000     0.499550000000     0.463890000000    -0.031105   
N79      N      0.523630000000     0.005540000000     0.889260000000    -0.215843   
N80      N      0.516050000000     0.997100000000     0.589110000000    -0.207391   
N81      N      0.540010000000     0.977180000000     0.893600000000    -0.0323324  
N82      N      0.483810000000     0.991520000000     0.087360000000    -0.215892   
N83      N      0.490940000000     0.998410000000     0.387330000000    -0.206736   
N84      N      0.468140000000     0.020460000000     0.083120000000    -0.0323017  
N85      N      0.770320000000     0.138420000000     0.117040000000    -0.21782    
N86      N      0.571920000000     0.033070000000     0.021900000000    -0.206343   
N87      N      0.764560000000     0.108090000000     0.162120000000    -0.0386407  
N88      N      0.189370000000     0.848990000000     0.405900000000    -0.215904   
N89      N      0.189560000000     0.846250000000     0.705600000000    -0.207472   
N90      N      0.167370000000     0.872300000000     0.406960000000    -0.0332129  
N91      N      0.157140000000     0.824020000000     0.906210000000    -0.215695   
N92      N      0.166850000000     0.820960000000     0.204420000000    -0.207198   
N93      N      0.149540000000     0.858890000000     0.911480000000    -0.0317135  
N94      N      0.243380000000     0.868900000000     0.833310000000    -0.214968   
N95      N      0.435730000000     0.964360000000     0.955090000000    -0.206156   
N96      N      0.248880000000     0.833880000000     0.817050000000    -0.0318821  
N97      N      0.825240000000     0.667280000000     0.741710000000    -0.214792   
N98      N      0.819970000000     0.666750000000     0.040680000000    -0.206959   
N99      N      0.847310000000     0.712530000000     0.745250000000    -0.0327659  
N100     N      0.854880000000     0.672060000000     0.540560000000    -0.215738   
N101     N      0.847590000000     0.662080000000     0.240650000000    -0.207563   
N102     N      0.870020000000     0.642710000000     0.545800000000    -0.0327139  
N103     N      0.769170000000     0.635780000000     0.615470000000    -0.215122   
N104     N      0.575050000000     0.539040000000     0.499940000000    -0.207381   
N105     N      0.761960000000     0.594970000000     0.633900000000    -0.0314526  
N106     N      0.908520000000     0.702340000000     0.668980000000    -0.213504   
N107     N      0.104660000000     0.801760000000     0.777450000000    -0.206933   
N108     N      0.908740000000     0.663350000000     0.676120000000    -0.0312524  
O1       O      0.829830000000     0.649390000000     0.691510000000    -0.546926   
O2       O      0.846520000000     0.652760000000     0.594690000000    -0.534252   
O3       O      0.871950000000     0.667160000000     0.655350000000    -0.531214   
O4       O      0.804370000000     0.634990000000     0.630830000000    -0.537449   
O5       O      0.805960000000     0.671130000000     0.627290000000    -0.55358    
O6       O      0.873990000000     0.703430000000     0.650490000000    -0.545989   
O7       O      0.847790000000     0.688740000000     0.590180000000    -0.556864   
O8       O      0.832450000000     0.686040000000     0.687360000000    -0.535502   
O9       O      0.165560000000     0.847430000000     0.855710000000    -0.537645   
O10      O      0.182170000000     0.858660000000     0.758890000000    -0.558822   
O11      O      0.140030000000     0.836650000000     0.794920000000    -0.549951   
O12      O      0.207810000000     0.869450000000     0.819520000000    -0.553745   
O13      O      0.207400000000     0.833820000000     0.817630000000    -0.535532   
O14      O      0.140080000000     0.801220000000     0.791340000000    -0.556378   
O15      O      0.182830000000     0.823500000000     0.756200000000    -0.549951   
O16      O      0.164620000000     0.811590000000     0.852700000000    -0.555099   
O17      O      0.514510000000     0.984780000000     0.942290000000    -0.534924   
O18      O      0.492900000000     0.976880000000     0.037300000000    -0.556812   
O19      O      0.470510000000     0.964090000000     0.973960000000    -0.551688   
O20      O      0.536800000000     0.997490000000     0.005780000000    -0.547978   
O21      O      0.537380000000     0.033220000000     0.001780000000    -0.553883   
O22      O      0.470690000000     0.999700000000     0.972140000000    -0.549806   
O23      O      0.493760000000     0.012740000000     0.034720000000    -0.536486   
O24      O      0.514190000000     0.020040000000     0.939190000000    -0.557687   
O25      O      0.181300000000     0.312820000000     0.257870000000    -0.558081   
O26      O      0.162890000000     0.307150000000     0.354080000000    -0.557107   
O27      O      0.138510000000     0.292930000000     0.292180000000    -0.555485   
O28      O      0.205760000000     0.327040000000     0.319480000000    -0.553478   
O29      O      0.205820000000     0.362580000000     0.316960000000    -0.549316   
O30      O      0.138930000000     0.328600000000     0.288270000000    -0.554871   
O31      O      0.162570000000     0.342450000000     0.350410000000    -0.557935   
O32      O      0.182340000000     0.348790000000     0.254740000000    -0.53802    
O33      O      0.849590000000     0.194960000000     0.085180000000    -0.531892   
O34      O      0.832720000000     0.178540000000     0.181620000000    -0.540583   
O35      O      0.875510000000     0.201990000000     0.144870000000    -0.558375   
O36      O      0.807960000000     0.172840000000     0.122320000000    -0.550058   
O37      O      0.805630000000     0.136150000000     0.120570000000    -0.540973   
O38      O      0.874900000000     0.167010000000     0.132990000000    -0.53383    
O39      O      0.835670000000     0.144750000000     0.174720000000    -0.55332    
O40      O      0.844920000000     0.157800000000     0.076980000000    -0.557016   
O41      O      0.496720000000     0.514240000000     0.523120000000    -0.553584   
O42      O      0.512200000000     0.524910000000     0.425850000000    -0.538399   
O43      O      0.470700000000     0.501670000000     0.463060000000    -0.529433   
O44      O      0.538650000000     0.537680000000     0.485970000000    -0.55518    
O45      O      0.540410000000     0.503090000000     0.483860000000    -0.556206   
O46      O      0.472440000000     0.467150000000     0.460910000000    -0.553697   
O47      O      0.514290000000     0.490530000000     0.423560000000    -0.555664   
O48      O      0.498830000000     0.479830000000     0.521020000000    -0.555128   
O49      O      0.159700000000     0.317260000000     0.854400000000    -0.555919   
O50      O      0.150170000000     0.321100000000     0.756360000000    -0.557601   
O51      O      0.172190000000     0.302280000000     0.795730000000    -0.556629   
O52      O      0.137600000000     0.336250000000     0.815100000000    -0.555569   
O53      O      0.172770000000     0.371970000000     0.811890000000    -0.558556   
O54      O      0.207340000000     0.337930000000     0.793870000000    -0.531432   
O55      O      0.185610000000     0.356470000000     0.753620000000    -0.537592   
O56      O      0.194510000000     0.353360000000     0.851980000000    -0.552907   
O57      O      0.355520000000     0.176940000000     0.692520000000    -0.555987   
O58      O      0.352790000000     0.190720000000     0.595630000000    -0.555796   
O59      O      0.338090000000     0.201590000000     0.656150000000    -0.558096   
O60      O      0.370280000000     0.166080000000     0.632090000000    -0.557669   
O61      O      0.333990000000     0.131580000000     0.628340000000    -0.556996   
O62      O      0.301710000000     0.167440000000     0.650210000000    -0.557009   
O63      O      0.316930000000     0.155860000000     0.590580000000    -0.557513   
O64      O      0.318730000000     0.143130000000     0.687970000000    -0.557248   
O65      O      0.023890000000     0.529730000000     0.924190000000    -0.557708   
O66      O      0.026680000000     0.515920000000     0.020850000000    -0.553217   
O67      O      0.042160000000     0.505890000000     0.960280000000    -0.536953   
O68      O      0.008270000000     0.539720000000     0.984790000000    -0.55341    
O69      O      0.972530000000     0.504720000000     0.979950000000    -0.549668   
O70      O      0.006470000000     0.471100000000     0.954840000000    -0.553937   
O71      O      0.991060000000     0.480830000000     0.015600000000    -0.558145   
O72      O      0.987890000000     0.495110000000     0.919110000000    -0.539407   
O73      O      0.681100000000     0.855350000000     0.258740000000    -0.551653   
O74      O      0.689430000000     0.844120000000     0.354700000000    -0.555862   
O75      O      0.700960000000     0.831880000000     0.292310000000    -0.557431   
O76      O      0.669590000000     0.867420000000     0.320820000000    -0.536536   
O77      O      0.633350000000     0.832900000000     0.319480000000    -0.553972   
O78      O      0.664830000000     0.797270000000     0.292290000000    -0.536625   
O79      O      0.653040000000     0.809600000000     0.354070000000    -0.555612   
O80      O      0.645260000000     0.820450000000     0.257690000000    -0.530971   
O81      O      0.809370000000     0.647910000000     0.094920000000    -0.550328   
O82      O      0.823510000000     0.644990000000     0.191470000000    -0.555741   
O83      O      0.799240000000     0.663100000000     0.155810000000    -0.55784    
O84      O      0.833630000000     0.629960000000     0.130400000000    -0.537054   
O85      O      0.868080000000     0.665930000000     0.124370000000    -0.557109   
O86      O      0.834080000000     0.699060000000     0.151850000000    -0.557449   
O87      O      0.858550000000     0.680640000000     0.186170000000    -0.555486   
O88      O      0.843560000000     0.684380000000     0.090120000000    -0.554122   
O89      O      0.492860000000     0.978890000000     0.539530000000    -0.554622   
O90      O      0.479910000000     0.980150000000     0.441980000000    -0.549311   
O91      O      0.504400000000     0.963370000000     0.480150000000    -0.557209   
O92      O      0.468440000000     0.995630000000     0.501160000000    -0.537184   
O93      O      0.502660000000     0.031920000000     0.496130000000    -0.557138   
O94      O      0.538670000000     0.999720000000     0.474910000000    -0.557101   
O95      O      0.514220000000     0.016480000000     0.436850000000    -0.55523    
O96      O      0.527210000000     0.015170000000     0.534350000000    -0.55604    
O97      O      0.360790000000     0.179030000000     0.190960000000    -0.536548   
O98      O      0.355550000000     0.160440000000     0.094870000000    -0.557902   
O99      O      0.373810000000     0.203260000000     0.129110000000    -0.552177   
O100     O      0.342540000000     0.136200000000     0.156780000000    -0.552888   
O101     O      0.306100000000     0.134220000000     0.154510000000    -0.549561   
O102     O      0.337240000000     0.200870000000     0.124920000000    -0.554761   
O103     O      0.318630000000     0.157340000000     0.092030000000    -0.536377   
O104     O      0.324790000000     0.177750000000     0.187520000000    -0.556468   
O105     O      0.496890000000     0.510330000000     0.026430000000    -0.556403   
O106     O      0.481340000000     0.497330000000     0.929410000000    -0.532261   
O107     O      0.470300000000     0.469520000000     0.988060000000    -0.535896   
O108     O      0.507750000000     0.537750000000     0.967830000000    -0.551799   
O109     O      0.541030000000     0.534290000000     0.959950000000    -0.533765   
O110     O      0.503560000000     0.466020000000     0.980130000000    -0.558217   
O111     O      0.514510000000     0.493620000000     0.921530000000    -0.554283   
O112     O      0.530050000000     0.506520000000     0.018710000000    -0.550278   
O113     O      0.166340000000     0.842800000000     0.355730000000    -0.537373   
O114     O      0.154360000000     0.827210000000     0.258490000000    -0.556537   
O115     O      0.142790000000     0.800930000000     0.318350000000    -0.556296   
O116     O      0.177850000000     0.868950000000     0.295900000000    -0.550209   
O117     O      0.212650000000     0.867740000000     0.293250000000    -0.536349   
O118     O      0.177380000000     0.799460000000     0.313950000000    -0.537275   
O119     O      0.189560000000     0.826690000000     0.254700000000    -0.551407   
O120     O      0.200600000000     0.840520000000     0.352380000000    -0.551146   
O121     O      0.021700000000     0.491420000000     0.423780000000    -0.534197   
O122     O      0.027080000000     0.509850000000     0.520100000000    -0.555089   
O123     O      0.007710000000     0.466990000000     0.485440000000    -0.52935    
O124     O      0.041050000000     0.534180000000     0.458470000000    -0.556561   
O125     O      0.005280000000     0.533650000000     0.456270000000    -0.551468   
O126     O      0.971860000000     0.465850000000     0.480480000000    -0.554058   
O127     O      0.990650000000     0.507860000000     0.516890000000    -0.558668   
O128     O      0.986340000000     0.491490000000     0.419940000000    -0.558932   
O129     O      0.819240000000     0.173100000000     0.678400000000    -0.553507   
O130     O      0.806740000000     0.156840000000     0.581160000000    -0.552743   
O131     O      0.795280000000     0.131080000000     0.642060000000    -0.554556   
O132     O      0.830690000000     0.198830000000     0.617660000000    -0.554467   
O133     O      0.865140000000     0.196910000000     0.613600000000    -0.558848   
O134     O      0.829920000000     0.129460000000     0.638940000000    -0.558386   
O135     O      0.841030000000     0.154570000000     0.577910000000    -0.557795   
O136     O      0.854060000000     0.171870000000     0.674490000000    -0.557754   
O137     O      0.685260000000     0.828790000000     0.758720000000    -0.556451   
O138     O      0.688440000000     0.841840000000     0.856840000000    -0.555478   
O139     O      0.671190000000     0.801210000000     0.817660000000    -0.556862   
O140     O      0.702600000000     0.869580000000     0.797870000000    -0.555506   
O141     O      0.666130000000     0.867360000000     0.794910000000    -0.530103   
O142     O      0.634670000000     0.799070000000     0.815270000000    -0.555888   
O143     O      0.652120000000     0.840130000000     0.853940000000    -0.553011   
O144     O      0.648790000000     0.826650000000     0.756110000000    -0.538252   
O145     O      0.647790000000     0.910740000000     0.780510000000    -0.0988102  
O146     O      0.661560000000     0.901970000000     0.829880000000    -0.0976705  
O147     O      0.017910000000     0.431450000000     0.466910000000    -0.0821973  
O148     O      0.023950000000     0.428040000000     0.524390000000    -0.104829   
O149     O      0.178070000000     0.763030000000     0.278360000000    -0.0980455  
O150     O      0.191810000000     0.753470000000     0.327060000000    -0.106616   
O151     O      0.582310000000     0.568230000000     0.991670000000    -0.0993038  
O152     O      0.602430000000     0.577040000000     0.940150000000    -0.108505   
O153     O      0.251420000000     0.902420000000     0.328640000000    -0.092279   
O154     O      0.273870000000     0.912470000000     0.279130000000    -0.105714   
O155     O      0.408590000000     0.426550000000     0.005480000000    -0.104164   
O156     O      0.429500000000     0.436290000000     0.954580000000    -0.0920906  
O157     O      0.614930000000     0.830130000000     0.685810000000    -0.103676   
O158     O      0.648580000000     0.860180000000     0.712000000000    -0.0927581  
O159     O      0.607530000000     0.784810000000     0.189830000000    -0.0972019  
O160     O      0.605410000000     0.813450000000     0.222520000000    -0.0929334  
O161     O      0.647290000000     0.736890000000     0.276210000000    -0.104131   
O162     O      0.649050000000     0.765300000000     0.238550000000    -0.0897942  
O163     O      0.687290000000     0.928790000000     0.336570000000    -0.109232   
O164     O      0.672330000000     0.906350000000     0.287400000000    -0.0974551  
O165     O      0.942140000000     0.475630000000     0.852160000000    -0.109072   
O166     O      0.954740000000     0.506080000000     0.891730000000    -0.100555   
O167     O      0.054300000000     0.475910000000     0.364280000000    -0.10382    
O168     O      0.020990000000     0.451310000000     0.396500000000    -0.0832812  
O169     O      0.818350000000     0.570040000000     0.112360000000    -0.109012   
O170     O      0.817880000000     0.598170000000     0.076370000000    -0.103695   
O171     O      0.286080000000     0.111750000000     0.068500000000    -0.100776   
O172     O      0.270530000000     0.127110000000     0.029290000000    -0.110491   
O173     O      0.398560000000     0.184070000000     0.260210000000    -0.110052   
O174     O      0.399880000000     0.213670000000     0.225530000000    -0.10115    
O175     O      0.429470000000     0.990470000000     0.464830000000    -0.0991386  
O176     O      0.406810000000     0.978230000000     0.514160000000    -0.10811    
O177     O      0.102700000000     0.521700000000     0.945150000000    -0.108277   
O178     O      0.080000000000     0.506750000000     0.994120000000    -0.0988343  
O179     O      0.268550000000     0.353640000000     0.782510000000    -0.0981554  
O180     O      0.245010000000     0.340690000000     0.830980000000    -0.0965699  
O181     O      0.444830000000     0.507560000000     0.869810000000    -0.100026   
O182     O      0.482770000000     0.533650000000     0.889690000000    -0.102123   
O183     O      0.476830000000     0.521380000000     0.381710000000    -0.0904457  
O184     O      0.503230000000     0.558500000000     0.359490000000    -0.101924   
O185     O      0.833810000000     0.219760000000     0.044830000000    -0.102061   
O186     O      0.873210000000     0.245240000000     0.030260000000    -0.106224   
O187     O      0.786840000000     0.177880000000     0.227020000000    -0.103367   
O188     O      0.776350000000     0.143830000000     0.195230000000    -0.0684859  
O189     O      0.223090000000     0.389620000000     0.683360000000    -0.102538   
O190     O      0.219020000000     0.355840000000     0.709930000000    -0.0926395  
O191     O      0.209680000000     0.396620000000     0.190760000000    -0.106453   
O192     O      0.226880000000     0.382770000000     0.229640000000    -0.0986668  
O193     O      0.917760000000     0.147920000000     0.145510000000    -0.109898   
O194     O      0.910620000000     0.164720000000     0.098000000000    -0.098191   
O195     O      0.433970000000     0.502760000000     0.497230000000    -0.0975549  
O196     O      0.424890000000     0.515710000000     0.447310000000    -0.0965528  
O197     O      0.556380000000     0.988190000000     0.918170000000    -0.0982343  
O198     O      0.534980000000     0.955360000000     0.883420000000    -0.107051   
O199     O      0.473410000000     0.042300000000     0.093580000000    -0.109864   
O200     O      0.451960000000     0.009850000000     0.058190000000    -0.10002    
O201     O      0.762160000000     0.086300000000     0.160290000000    -0.102755   
O202     O      0.775580000000     0.121870000000     0.189680000000    -0.068025   
O203     O      0.179010000000     0.887790000000     0.381620000000    -0.0958558  
O204     O      0.147770000000     0.871350000000     0.420130000000    -0.109846   
O205     O      0.160480000000     0.881100000000     0.924200000000    -0.110078   
O206     O      0.131060000000     0.852220000000     0.890080000000    -0.0999509  
O207     O      0.251460000000     0.816880000000     0.832820000000    -0.108189   
O208     O      0.243560000000     0.831550000000     0.783610000000    -0.100237   
O209     O      0.868250000000     0.718180000000     0.730720000000    -0.101364   
O210     O      0.842450000000     0.729980000000     0.752090000000    -0.110561   
O211     O      0.887050000000     0.653830000000     0.569510000000    -0.0876561  
O212     O      0.863910000000     0.620410000000     0.536610000000    -0.102063   
O213     O      0.758250000000     0.574700000000     0.619120000000    -0.104642   
O214     O      0.767750000000     0.598540000000     0.667150000000    -0.098678   
O215     O      0.893620000000     0.650230000000     0.701030000000    -0.0954111  
O216     O      0.917280000000     0.653110000000     0.654930000000    -0.0947866  
V1       V      0.838080000000     0.649640000000     0.643240000000     1.44219    
V2       V      0.840090000000     0.688760000000     0.638590000000     1.3981     
V3       V      0.173910000000     0.854460000000     0.807410000000     1.4124     
V4       V      0.173740000000     0.816130000000     0.804360000000     1.41159    
V5       V      0.503660000000     0.979390000000     0.989930000000     1.40786    
V6       V      0.504040000000     0.017840000000     0.986850000000     1.40974    
V7       V      0.172090000000     0.308570000000     0.306070000000     1.395      
V8       V      0.172410000000     0.347000000000     0.302440000000     1.41694    
V9       V      0.841680000000     0.188640000000     0.133870000000     1.42083    
V10      V      0.840270000000     0.150000000000     0.125740000000     1.42473    
V11      V      0.504540000000     0.521010000000     0.474600000000     1.43235    
V12      V      0.506570000000     0.483780000000     0.472210000000     1.38961    
V13      V      0.153490000000     0.317820000000     0.805500000000     1.39251    
V14      V      0.191420000000     0.356360000000     0.802710000000     1.43693    
V15      V      0.355610000000     0.185200000000     0.644270000000     1.39896    
V16      V      0.316400000000     0.148140000000     0.639080000000     1.40107    
V17      V      0.026660000000     0.524200000000     0.972720000000     1.42092    
V18      V      0.988070000000     0.486550000000     0.967140000000     1.40407    
V19      V      0.686720000000     0.851050000000     0.306700000000     1.40811    
V20      V      0.647680000000     0.813690000000     0.305870000000     1.43049    
V21      V      0.815070000000     0.645070000000     0.143400000000     1.41819    
V22      V      0.852450000000     0.683930000000     0.137940000000     1.39339    
V23      V      0.485060000000     0.978070000000     0.490950000000     1.41588    
V24      V      0.522050000000     0.017260000000     0.485390000000     1.39561    
V25      V      0.359610000000     0.169820000000     0.143060000000     1.41583    
V26      V      0.320240000000     0.167460000000     0.139630000000     1.40509    
V27      V      0.487730000000     0.503820000000     0.978280000000     1.43131    
V28      V      0.523610000000     0.499980000000     0.969780000000     1.40617    
V29      V      0.158940000000     0.835000000000     0.307270000000     1.40561    
V30      V      0.196410000000     0.833530000000     0.303420000000     1.43149    
V31      V      0.025800000000     0.500640000000     0.472100000000     1.43054    
V32      V      0.987120000000     0.499700000000     0.468260000000     1.38771    
V33      V      0.811600000000     0.165020000000     0.629950000000     1.38841    
V34      V      0.848880000000     0.163110000000     0.626070000000     1.40475    
V35      V      0.688330000000     0.835440000000     0.807880000000     1.39234    
V36      V      0.648970000000     0.833170000000     0.804950000000     1.43313    


