data_structure

_audit_creation_method RASPA-1.0
_audit_creation_date 2023-5-19
_audit_author_name 'Poobodin Mano'

_cell_length_a    38.4996
_cell_length_b    38.4972
_cell_length_c    38.4792
_cell_angle_alpha 90
_cell_angle_beta  90
_cell_angle_gamma 90
_cell_volume      57031.1

_symmetry_cell_setting          triclinic
_symmetry_space_group_name_Hall 'P 1'
_symmetry_space_group_name_H-M  'P 1'
_symmetry_Int_Tables_number     1

_symmetry_equiv_pos_as_xyz 'x,y,z'

loop_
_atom_site_label
_atom_site_type_symbol
_atom_site_fract_x
_atom_site_fract_y
_atom_site_fract_z
_atom_site_charge
C1       C      0.999350000000     0.064060000000     0.499190000000     0.49041    
C2       C      0.997480000000     0.932040000000     0.500090000000     0.48425    
C3       C      0.932190000000     0.998030000000     0.497160000000     0.490444   
C4       C      0.064160000000     0.996940000000     0.502060000000     0.491537   
C5       C      0.995400000000     0.431680000000     0.502750000000     0.481745   
C6       C      0.998170000000     0.563640000000     0.500550000000     0.490345   
C7       C      0.998590000000     0.496910000000     0.436060000000     0.482027   
C8       C      0.994710000000     0.497650000000     0.568120000000     0.489311   
C9       C      0.564120000000     0.007270000000     0.496760000000     0.481383   
C10      C      0.432210000000     0.007280000000     0.498280000000     0.484529   
C11      C      0.496790000000     0.006400000000     0.431430000000     0.490387   
C12      C      0.498310000000     0.008490000000     0.563480000000     0.490588   
C13      C      0.505710000000     0.997000000000     0.063380000000     0.48125    
C14      C      0.506810000000     0.001010000000     0.931500000000     0.482805   
C15      C      0.505670000000     0.064930000000     0.999480000000     0.480539   
C16      C      0.507090000000     0.933050000000     0.994700000000     0.490226   
C17      C      0.004620000000     0.492770000000     0.068140000000     0.489344   
C18      C      0.997890000000     0.495510000000     0.936230000000     0.481623   
C19      C      0.066780000000     0.493070000000     0.998560000000     0.491398   
C20      C      0.934980000000     0.495170000000     0.005260000000     0.481002   
C21      C      0.500300000000     0.433090000000     0.004880000000     0.490595   
C22      C      0.500770000000     0.565020000000     0.001810000000     0.482789   
C23      C      0.434910000000     0.498780000000     0.003400000000     0.482418   
C24      C      0.566870000000     0.500120000000     0.003060000000     0.49047    
C25      C      0.658060000000     0.505670000000     0.973710000000    -0.120074   
C26      C      0.880800000000     0.465240000000     0.005680000000     0.0802097  
C27      C      0.881830000000     0.526740000000     0.008300000000     0.0794337  
C28      C      0.844520000000     0.465350000000     0.006180000000    -0.0954151  
C29      C      0.768500000000     0.472960000000     0.026170000000    -0.0345762  
C30      C      0.732180000000     0.473440000000     0.025450000000    -0.031551   
C31      C      0.787800000000     0.497550000000     0.007260000000    -0.00568678 
C32      C      0.845580000000     0.527790000000     0.008880000000    -0.0962448  
C33      C      0.714340000000     0.498490000000     0.005740000000    -0.0102077  
C34      C      0.656260000000     0.493720000000     0.034910000000    -0.102711   
C35      C      0.733660000000     0.523170000000     0.986970000000    -0.0313794  
C36      C      0.620070000000     0.494940000000     0.033600000000     0.0848255  
C37      C      0.621660000000     0.507460000000     0.973080000000     0.171692   
C38      C      0.769920000000     0.522680000000     0.987690000000    -0.0340709  
C39      C      0.826420000000     0.496880000000     0.007620000000     0.0530945  
C40      C      0.675730000000     0.498970000000     0.004740000000     0.0669262  
C41      C      0.157600000000     0.462590000000     0.992960000000    -0.120038   
C42      C      0.381090000000     0.497720000000     0.034050000000     0.0818783  
C43      C      0.381360000000     0.498300000000     0.972450000000     0.0807363  
C44      C      0.344800000000     0.496850000000     0.034330000000    -0.0946956  
C45      C      0.268210000000     0.514680000000     0.026800000000    -0.034557   
C46      C      0.231910000000     0.513860000000     0.026080000000    -0.0310295  
C47      C      0.287710000000     0.495490000000     0.002590000000    -0.00518058 
C48      C      0.345130000000     0.497550000000     0.971790000000    -0.0958821  
C49      C      0.214250000000     0.493850000000     0.001120000000    -0.010187   
C50      C      0.156530000000     0.523770000000     0.004920000000    -0.103427   
C51      C      0.233770000000     0.474570000000     0.977010000000    -0.0308069  
C52      C      0.120360000000     0.522970000000     0.003380000000     0.0856076  
C53      C      0.121200000000     0.462490000000     0.990780000000     0.175105   
C54      C      0.270030000000     0.475320000000     0.977780000000    -0.033786   
C55      C      0.326330000000     0.496670000000     0.002950000000     0.0534971  
C56      C      0.175630000000     0.493330000000     0.999990000000     0.0681949  
C57      C      0.536910000000     0.842010000000     0.988940000000    -0.120475   
C58      C      0.500730000000     0.618000000000     0.969820000000     0.0823538  
C59      C      0.501860000000     0.619380000000     0.031390000000     0.0805367  
C60      C      0.501310000000     0.654250000000     0.968530000000    -0.0952769  
C61      C      0.484160000000     0.731830000000     0.022630000000    -0.0351505  
C62      C      0.485100000000     0.768110000000     0.021790000000    -0.0317983  
C63      C      0.503270000000     0.712170000000     0.998490000000    -0.00548774 
C64      C      0.502540000000     0.655640000000     0.031050000000    -0.0959594  
C65      C      0.505160000000     0.785600000000     0.996770000000    -0.0106523  
C66      C      0.475700000000     0.843520000000     0.000660000000    -0.103954   
C67      C      0.524260000000     0.765940000000     0.972620000000    -0.031137   
C68      C      0.476810000000     0.879690000000     0.999320000000     0.0843269  
C69      C      0.537330000000     0.878420000000     0.986990000000     0.171284   
C70      C      0.523360000000     0.729680000000     0.973500000000    -0.0342735  
C71      C      0.502320000000     0.673570000000     0.999370000000     0.0534742  
C72      C      0.505990000000     0.824200000000     0.995720000000     0.0669408  
C73      C      0.495510000000     0.342310000000     0.035750000000    -0.120095   
C74      C      0.535930000000     0.118880000000     0.001740000000     0.0794398  
C75      C      0.474390000000     0.118340000000     0.000050000000     0.0792305  
C76      C      0.536070000000     0.155140000000     0.002650000000    -0.0960753  
C77      C      0.528790000000     0.231440000000     0.984070000000    -0.0344403  
C78      C      0.528290000000     0.267730000000     0.984790000000    -0.0314856  
C79      C      0.504290000000     0.212120000000     0.003090000000    -0.00575295 
C80      C      0.473590000000     0.154600000000     0.000870000000    -0.0962594  
C81      C      0.503300000000     0.285590000000     0.004550000000    -0.0101284  
C82      C      0.507640000000     0.343250000000     0.974570000000    -0.102759   
C83      C      0.478840000000     0.266260000000     0.023610000000    -0.0312027  
C84      C      0.506100000000     0.379430000000     0.975300000000     0.0850803  
C85      C      0.493380000000     0.378710000000     0.035790000000     0.171867   
C86      C      0.479360000000     0.229990000000     0.022920000000    -0.0339355  
C87      C      0.504660000000     0.173500000000     0.002190000000     0.0531116  
C88      C      0.502480000000     0.324210000000     0.005030000000     0.0671492  
C89      C      0.495700000000     0.039050000000     0.654430000000    -0.120606   
C90      C      0.476110000000     0.001580000000     0.877830000000     0.0807783  
C91      C      0.537660000000     0.003340000000     0.877800000000     0.0820005  
C92      C      0.475570000000     0.002650000000     0.841610000000    -0.0963017  
C93      C      0.530770000000     0.986960000000     0.764650000000    -0.0348253  
C94      C      0.529870000000     0.987910000000     0.728340000000    -0.0314581  
C95      C      0.506430000000     0.005800000000     0.784340000000    -0.00545443 
C96      C      0.538050000000     0.004510000000     0.841500000000    -0.0950825  
C97      C      0.504640000000     0.007740000000     0.710890000000    -0.0104256  
C98      C      0.507800000000     0.977900000000     0.653060000000    -0.103728   
C99      C      0.480460000000     0.026740000000     0.730600000000    -0.031281   
C100     C      0.505310000000     0.978700000000     0.616910000000     0.0842538  
C101     C      0.492560000000     0.039160000000     0.618110000000     0.172029   
C102     C      0.481400000000     0.025840000000     0.766850000000    -0.0342248  
C103     C      0.506740000000     0.004280000000     0.822940000000     0.0536205  
C104     C      0.503130000000     0.008310000000     0.672280000000     0.067285   
C105     C      0.492140000000     0.034180000000     0.339690000000    -0.120549   
C106     C      0.535690000000     0.997510000000     0.117610000000     0.0797108  
C107     C      0.474180000000     0.995140000000     0.116560000000     0.079644   
C108     C      0.535500000000     0.997900000000     0.153930000000    -0.0955445  
C109     C      0.527460000000     0.980190000000     0.230620000000    -0.0347968  
C110     C      0.526440000000     0.981630000000     0.266930000000    -0.0316099  
C111     C      0.503010000000     0.998520000000     0.210600000000    -0.0057864  
C112     C      0.473060000000     0.995400000000     0.152800000000    -0.0965509  
C113     C      0.500970000000     0.001460000000     0.284030000000    -0.0103675  
C114     C      0.505000000000     0.973240000000     0.342640000000    -0.103709   
C115     C      0.476530000000     0.019750000000     0.263980000000    -0.031296   
C116     C      0.503050000000     0.975070000000     0.378790000000     0.0842854  
C117     C      0.489570000000     0.035310000000     0.376040000000     0.172164   
C118     C      0.477580000000     0.018360000000     0.227740000000    -0.034084   
C119     C      0.503910000000     0.997090000000     0.172000000000     0.0530381  
C120     C      0.499720000000     0.003030000000     0.322620000000     0.0672931  
C121     C      0.963460000000     0.495940000000     0.659060000000    -0.120172   
C122     C      0.994560000000     0.527330000000     0.883170000000     0.0800396  
C123     C      0.998300000000     0.465860000000     0.881860000000     0.0818916  
C124     C      0.993800000000     0.528520000000     0.846890000000    -0.096074   
C125     C      0.971810000000     0.519340000000     0.770950000000    -0.0343652  
C126     C      0.971490000000     0.519650000000     0.734610000000    -0.0313276  
C127     C      0.995680000000     0.498490000000     0.789100000000    -0.00551383 
C128     C      0.998010000000     0.466160000000     0.845570000000    -0.0949319  
C129     C      0.995310000000     0.499460000000     0.715690000000    -0.01059    
C130     C      0.025530000000     0.501460000000     0.658110000000    -0.103149   
C131     C      0.019390000000     0.478880000000     0.733850000000    -0.0311017  
C132     C      0.024610000000     0.500500000000     0.621900000000     0.0847275  
C133     C      0.963170000000     0.494020000000     0.622620000000     0.171535   
C134     C      0.019460000000     0.478270000000     0.770170000000    -0.0346855  
C135     C      0.995760000000     0.497730000000     0.827660000000     0.0535922  
C136     C      0.994740000000     0.499370000000     0.677120000000     0.0672691  
C137     C      0.008720000000     0.462090000000     0.159110000000    -0.120632   
C138     C      0.969300000000     0.494580000000     0.381570000000     0.0806124  
C139     C      0.030770000000     0.498010000000     0.383130000000     0.082024   
C140     C      0.969780000000     0.493860000000     0.345290000000    -0.0961204  
C141     C      0.023280000000     0.518590000000     0.270580000000    -0.034759   
C142     C      0.023920000000     0.518240000000     0.234260000000    -0.0310795  
C143     C      0.002390000000     0.494970000000     0.288970000000    -0.00546379 
C144     C      0.032160000000     0.497780000000     0.346850000000    -0.094988   
C145     C      0.003980000000     0.494000000000     0.215600000000    -0.0107857  
C146     C      0.002630000000     0.524120000000     0.157980000000    -0.103947   
C147     C      0.983270000000     0.470230000000     0.234000000000    -0.0311912  
C148     C      0.003340000000     0.523070000000     0.121760000000     0.0842867  
C149     C      0.010440000000     0.461700000000     0.122660000000     0.172505   
C150     C      0.982320000000     0.470850000000     0.270310000000    -0.0342667  
C151     C      0.001440000000     0.495550000000     0.327510000000     0.0537561  
C152     C      0.004880000000     0.493390000000     0.177060000000     0.0675353  
C153     C      0.154620000000     0.994310000000     0.534090000000    -0.119688   
C154     C      0.378780000000     0.976160000000     0.499030000000     0.0819249  
C155     C      0.378260000000     0.037730000000     0.499690000000     0.0850316  
C156     C      0.342560000000     0.975360000000     0.499990000000    -0.0956783  
C157     C      0.265320000000     0.029830000000     0.482980000000    -0.0338361  
C158     C      0.229020000000     0.028680000000     0.483620000000    -0.0308689  
C159     C      0.285010000000     0.005840000000     0.502260000000    -0.00479234 
C160     C      0.341960000000     0.037860000000     0.500740000000    -0.0935634  
C161     C      0.211550000000     0.003530000000     0.503550000000    -0.00947746 
C162     C      0.154170000000     0.006060000000     0.472830000000    -0.101588   
C163     C      0.231260000000     0.979750000000     0.523050000000    -0.0311201  
C164     C      0.118050000000     0.003510000000     0.473080000000     0.0869224  
C165     C      0.118290000000     0.991140000000     0.533640000000     0.172487   
C166     C      0.267510000000     0.980940000000     0.522460000000    -0.0337346  
C167     C      0.323630000000     0.006410000000     0.500990000000     0.0545114  
C168     C      0.172940000000     0.001680000000     0.503570000000     0.0676445  
C169     C      0.841900000000     0.994780000000     0.464810000000    -0.120269   
C170     C      0.618040000000     0.037730000000     0.495200000000     0.0805159  
C171     C      0.617580000000     0.976200000000     0.497540000000     0.0796427  
C172     C      0.654350000000     0.037890000000     0.494820000000    -0.0948884  
C173     C      0.730660000000     0.030460000000     0.514220000000    -0.034597   
C174     C      0.766980000000     0.029490000000     0.514080000000    -0.031254   
C175     C      0.711340000000     0.005970000000     0.495200000000    -0.00535429 
C176     C      0.653820000000     0.975430000000     0.497250000000    -0.0964063  
C177     C      0.784810000000     0.004020000000     0.494890000000    -0.0101493  
C178     C      0.842020000000     0.007600000000     0.525850000000    -0.103222   
C179     C      0.765460000000     0.979660000000     0.475740000000    -0.0312638  
C180     C      0.878170000000     0.005210000000     0.525800000000     0.0849382  
C181     C      0.878220000000     0.991780000000     0.465460000000     0.173089   
C182     C      0.729210000000     0.980660000000     0.475850000000    -0.0341948  
C183     C      0.672720000000     0.006480000000     0.495780000000     0.0532203  
C184     C      0.823410000000     0.002520000000     0.495120000000     0.0675154  
C185     C      0.029230000000     0.654310000000     0.495210000000    -0.120088   
C186     C      0.996720000000     0.878500000000     0.531220000000     0.0831586  
C187     C      0.997270000000     0.878160000000     0.469630000000     0.0834784  
C188     C      0.996630000000     0.842220000000     0.531890000000    -0.0944055  
C189     C      0.977210000000     0.765980000000     0.525030000000    -0.03424    
C190     C      0.977580000000     0.729660000000     0.525100000000    -0.0312327  
C191     C      0.997220000000     0.784750000000     0.500880000000    -0.00487301 
C192     C      0.997110000000     0.841890000000     0.469360000000    -0.0944861  
C193     C      0.997990000000     0.711230000000     0.501050000000    -0.0100386  
C194     C      0.967760000000     0.653650000000     0.505580000000    -0.102562   
C195     C      0.017950000000     0.730010000000     0.476890000000    -0.0309566  
C196     C      0.968480000000     0.617420000000     0.504650000000     0.0848655  
C197     C      0.029270000000     0.617890000000     0.493660000000     0.171666   
C198     C      0.017610000000     0.766290000000     0.476840000000    -0.0337532  
C199     C      0.996900000000     0.823400000000     0.500720000000     0.0541718  
C200     C      0.998370000000     0.672580000000     0.500960000000     0.0670247  
C201     C      0.001890000000     0.155510000000     0.469900000000    -0.120337   
C202     C      0.963890000000     0.378400000000     0.500310000000     0.0819276  
C203     C      0.025200000000     0.377580000000     0.506180000000     0.0809296  
C204     C      0.962960000000     0.342110000000     0.500240000000    -0.0954338  
C205     C      0.012880000000     0.266000000000     0.528180000000    -0.0342035  
C206     C      0.013210000000     0.229720000000     0.527740000000    -0.03113    
C207     C      0.993490000000     0.284650000000     0.503500000000    -0.00554531 
C208     C      0.025150000000     0.341320000000     0.506640000000    -0.0960195  
C209     C      0.994470000000     0.211340000000     0.502360000000    -0.0103728  
C210     C      0.992340000000     0.153270000000     0.531490000000    -0.103357   
C211     C      0.974990000000     0.229980000000     0.477740000000    -0.0311262  
C212     C      0.994220000000     0.117130000000     0.530000000000     0.0856307  
C213     C      0.004760000000     0.119170000000     0.469120000000     0.173409   
C214     C      0.974310000000     0.266280000000     0.478450000000    -0.0338037  
C215     C      0.993820000000     0.323170000000     0.503530000000     0.054151   
C216     C      0.995830000000     0.172850000000     0.501200000000     0.0680384  
H1       H      0.895550000000     0.551320000000     0.009240000000     0.0240532  
H2       H      0.606290000000     0.490150000000     0.057700000000     0.0266443  
H3       H      0.783960000000     0.541770000000     0.972520000000     0.0404018  
H4       H      0.718090000000     0.453920000000     0.040000000000     0.0399308  
H5       H      0.668890000000     0.489010000000     0.059620000000     0.0579872  
H6       H      0.781440000000     0.453470000000     0.041800000000     0.040489   
H7       H      0.672480000000     0.510350000000     0.949980000000     0.0796813  
H8       H      0.832690000000     0.552740000000     0.010550000000     0.0549726  
H9       H      0.830790000000     0.440830000000     0.004760000000     0.0564552  
H10      H      0.720750000000     0.543110000000     0.971900000000     0.0423504  
H11      H      0.893680000000     0.440240000000     0.004260000000     0.0279578  
H12      H      0.394750000000     0.498980000000     0.947670000000     0.0254986  
H13      H      0.106910000000     0.547270000000     0.008060000000     0.0238574  
H14      H      0.284210000000     0.459880000000     0.959020000000     0.041317   
H15      H      0.217680000000     0.528760000000     0.045240000000     0.0395628  
H16      H      0.169420000000     0.548320000000     0.009720000000     0.0568296  
H17      H      0.280970000000     0.530760000000     0.046040000000     0.0397     
H18      H      0.171720000000     0.438670000000     0.988430000000     0.0811262  
H19      H      0.331970000000     0.498040000000     0.946920000000     0.0553733  
H20      H      0.331370000000     0.495780000000     0.059040000000     0.0574114  
H21      H      0.221060000000     0.459220000000     0.957150000000     0.0424635  
H22      H      0.394300000000     0.497620000000     0.058930000000     0.0301898  
H23      H      0.502240000000     0.606630000000     0.056510000000     0.0252905  
H24      H      0.452600000000     0.893320000000     0.003990000000     0.0232979  
H25      H      0.538700000000     0.715360000000     0.954760000000     0.0419775  
H26      H      0.470330000000     0.782460000000     0.040960000000     0.0383649  
H27      H      0.451030000000     0.830810000000     0.005300000000     0.0564672  
H28      H      0.468110000000     0.719200000000     0.041990000000     0.0389892  
H29      H      0.560720000000     0.827710000000     0.984420000000     0.0796143  
H30      H      0.503770000000     0.669480000000     0.055520000000     0.055285   
H31      H      0.500590000000     0.667000000000     0.943460000000     0.0566627  
H32      H      0.539630000000     0.778560000000     0.952720000000     0.0423566  
H33      H      0.499940000000     0.604150000000     0.945300000000     0.0296796  
H34      H      0.449710000000     0.104820000000     0.998910000000     0.024388   
H35      H      0.510830000000     0.392840000000     0.950970000000     0.0267409  
H36      H      0.460350000000     0.215940000000     0.038180000000     0.0408037  
H37      H      0.547690000000     0.281820000000     0.970060000000     0.0397533  
H38      H      0.512490000000     0.330300000000     0.950060000000     0.0581413  
H39      H      0.548120000000     0.218520000000     0.968220000000     0.0398765  
H40      H      0.490900000000     0.328230000000     0.059690000000     0.0799466  
H41      H      0.448710000000     0.167690000000     0.999980000000     0.0554222  
H42      H      0.560700000000     0.168650000000     0.004150000000     0.0555919  
H43      H      0.458940000000     0.279160000000     0.038750000000     0.0428052  
H44      H      0.560860000000     0.105790000000     0.002230000000     0.025293   
H45      H      0.562470000000     0.003730000000     0.891130000000     0.0294365  
H46      H      0.509700000000     0.954430000000     0.603310000000     0.0235202  
H47      H      0.462530000000     0.041010000000     0.781190000000     0.0404769  
H48      H      0.549060000000     0.973230000000     0.713920000000     0.0390712  
H49      H      0.512970000000     0.953380000000     0.665840000000     0.0569995  
H50      H      0.550190000000     0.971010000000     0.777290000000     0.0408954  
H51      H      0.491430000000     0.062960000000     0.668670000000     0.0798859  
H52      H      0.562760000000     0.006120000000     0.828140000000     0.0567061  
H53      H      0.450770000000     0.001810000000     0.828350000000     0.0554051  
H54      H      0.460400000000     0.041930000000     0.718040000000     0.0425183  
H55      H      0.451310000000     0.000300000000     0.891120000000     0.0246037  
H56      H      0.449600000000     0.993950000000     0.102850000000     0.0240245  
H57      H      0.507960000000     0.951260000000     0.393030000000     0.0234533  
H58      H      0.458610000000     0.033140000000     0.213150000000     0.0406297  
H59      H      0.545830000000     0.967460000000     0.281600000000     0.0390519  
H60      H      0.510310000000     0.948430000000     0.330490000000     0.0567465  
H61      H      0.547190000000     0.964390000000     0.218270000000     0.0399039  
H62      H      0.487390000000     0.057610000000     0.324830000000     0.0801957  
H63      H      0.448060000000     0.994080000000     0.165650000000     0.0548664  
H64      H      0.559990000000     0.999570000000     0.167690000000     0.0560008  
H65      H      0.456260000000     0.034900000000     0.276280000000     0.042511   
H66      H      0.560700000000     0.998520000000     0.104700000000     0.0266276  
H67      H      0.000060000000     0.440830000000     0.894640000000     0.0313555  
H68      H      0.049290000000     0.502890000000     0.608550000000     0.0268711  
H69      H      0.038340000000     0.462180000000     0.783460000000     0.0418976  
H70      H      0.952760000000     0.535890000000     0.721280000000     0.0425433  
H71      H      0.050310000000     0.504290000000     0.671150000000     0.0583079  
H72      H      0.953030000000     0.535010000000     0.784870000000     0.0407621  
H73      H      0.939330000000     0.492990000000     0.673280000000     0.0800478  
H74      H      0.999200000000     0.441740000000     0.831630000000     0.0579385  
H75      H      0.992300000000     0.553490000000     0.833990000000     0.0554216  
H76      H      0.037850000000     0.462810000000     0.719970000000     0.0402965  
H77      H      0.993260000000     0.551820000000     0.897020000000     0.0243605  
H78      H      0.055180000000     0.499600000000     0.397090000000     0.0308042  
H79      H      0.000560000000     0.547670000000     0.108320000000     0.0237286  
H80      H      0.966170000000     0.452170000000     0.283820000000     0.0412323  
H81      H      0.040340000000     0.536680000000     0.220760000000     0.0399268  
H82      H      0.999590000000     0.548920000000     0.170950000000     0.0571256  
H83      H      0.038830000000     0.537630000000     0.284290000000     0.0415942  
H84      H      0.011980000000     0.438060000000     0.173430000000     0.0811023  
H85      H      0.057190000000     0.498850000000     0.334040000000     0.0578844  
H86      H      0.945440000000     0.492450000000     0.331240000000     0.0559024  
H87      H      0.967480000000     0.451390000000     0.220280000000     0.0428927  
H88      H      0.944180000000     0.493350000000     0.394240000000     0.0255347  
H89      H      0.391390000000     0.062640000000     0.499730000000     0.0356014  
H90      H      0.104860000000     0.007760000000     0.448550000000     0.0317865  
H91      H      0.281840000000     0.962350000000     0.537980000000     0.0410167  
H92      H      0.214630000000     0.047600000000     0.468570000000     0.041775   
H93      H      0.167300000000     0.011110000000     0.448450000000     0.0598855  
H94      H      0.277940000000     0.049150000000     0.466890000000     0.0423334  
H95      H      0.168490000000     0.990210000000     0.558240000000     0.0799998  
H96      H      0.328430000000     0.062490000000     0.501860000000     0.0594457  
H97      H      0.329500000000     0.950440000000     0.499530000000     0.0556027  
H98      H      0.218700000000     0.959770000000     0.538360000000     0.0425637  
H99      H      0.392260000000     0.951450000000     0.498260000000     0.0249528  
H100     H      0.604120000000     0.951500000000     0.498750000000     0.0239328  
H101     H      0.891270000000     0.009940000000     0.550300000000     0.0246488  
H102     H      0.715170000000     0.961660000000     0.460570000000     0.0403836  
H103     H      0.781090000000     0.048820000000     0.528860000000     0.0396806  
H104     H      0.828750000000     0.013030000000     0.550070000000     0.0573076  
H105     H      0.717740000000     0.050090000000     0.529680000000     0.0405403  
H106     H      0.828150000000     0.990190000000     0.440670000000     0.0802987  
H107     H      0.666890000000     0.950560000000     0.498610000000     0.0547797  
H108     H      0.667880000000     0.062510000000     0.493260000000     0.0571001  
H109     H      0.778310000000     0.959410000000     0.461030000000     0.0422423  
H110     H      0.604900000000     0.062620000000     0.494270000000     0.0293437  
H111     H      0.997390000000     0.891330000000     0.444720000000     0.0314026  
H112     H      0.944030000000     0.604100000000     0.508910000000     0.0269542  
H113     H      0.033640000000     0.779880000000     0.458140000000     0.0414471  
H114     H      0.962120000000     0.716010000000     0.544250000000     0.0398241  
H115     H      0.943160000000     0.666710000000     0.509520000000     0.0580951  
H116     H      0.960920000000     0.779350000000     0.543670000000     0.040473   
H117     H      0.053310000000     0.668270000000     0.491070000000     0.079718   
H118     H      0.996780000000     0.828470000000     0.444630000000     0.057519   
H119     H      0.996920000000     0.829040000000     0.556760000000     0.0572383  
H120     H      0.033590000000     0.716680000000     0.457670000000     0.0424648  
H121     H      0.996700000000     0.891960000000     0.555970000000     0.030295   
H122     H      0.050100000000     0.390540000000     0.508470000000     0.0258972  
H123     H      0.990500000000     0.103260000000     0.554240000000     0.026322   
H124     H      0.959330000000     0.280010000000     0.458980000000     0.0416362  
H125     H      0.028680000000     0.216030000000     0.546860000000     0.0408447  
H126     H      0.987590000000     0.165770000000     0.556270000000     0.0585004  
H127     H      0.027700000000     0.279510000000     0.547940000000     0.0411871  
H128     H      0.006110000000     0.170280000000     0.446280000000     0.081074   
H129     H      0.049610000000     0.327590000000     0.508900000000     0.0567242  
H130     H      0.938180000000     0.328970000000     0.498030000000     0.0575056  
H131     H      0.960140000000     0.216450000000     0.458020000000     0.0437033  
H132     H      0.939390000000     0.392060000000     0.497850000000     0.0290517  
N1       N      0.602640000000     0.501150000000     0.003000000000    -0.2157     
N2       N      0.899350000000     0.495710000000     0.006510000000    -0.207646   
N3       N      0.605530000000     0.518800000000     0.941390000000    -0.0320624  
N4       N      0.102550000000     0.492610000000     0.997120000000    -0.215263   
N5       N      0.399260000000     0.498320000000     0.003330000000    -0.207003   
N6       N      0.104700000000     0.431060000000     0.979270000000    -0.0314348  
N7       N      0.507330000000     0.897290000000     0.993290000000    -0.21611    
N8       N      0.501060000000     0.600660000000     0.001010000000    -0.207156   
N9       N      0.568930000000     0.894740000000     0.975690000000    -0.0319929  
N10      N      0.499620000000     0.397300000000     0.005590000000    -0.21565    
N11      N      0.505330000000     0.100570000000     0.000450000000    -0.208023   
N12      N      0.481860000000     0.395250000000     0.067190000000    -0.0320626  
N13      N      0.498350000000     0.009020000000     0.599280000000    -0.216058   
N14      N      0.506910000000     0.001980000000     0.895850000000    -0.207267   
N15      N      0.480490000000     0.070550000000     0.601950000000    -0.0320161  
N16      N      0.496070000000     0.005820000000     0.395640000000    -0.216047   
N17      N      0.505230000000     0.996430000000     0.099040000000    -0.207918   
N18      N      0.477330000000     0.067000000000     0.391480000000    -0.0320508  
N19      N      0.993830000000     0.497160000000     0.603970000000    -0.215155   
N20      N      0.996820000000     0.496230000000     0.900570000000    -0.206771   
N21      N      0.930670000000     0.486160000000     0.606120000000    -0.0317107  
N22      N      0.006510000000     0.492220000000     0.103940000000    -0.215546   
N23      N      0.999560000000     0.496510000000     0.400400000000    -0.206814   
N24      N      0.018870000000     0.429320000000     0.106170000000    -0.0323558  
N25      N      0.099940000000     0.996770000000     0.503180000000    -0.214912   
N26      N      0.396560000000     0.007100000000     0.498960000000    -0.205955   
N27      N      0.101620000000     0.979290000000     0.564860000000    -0.0320144  
N28      N      0.896420000000     0.997970000000     0.495910000000    -0.21567    
N29      N      0.599770000000     0.007100000000     0.496490000000    -0.207424   
N30      N      0.895030000000     0.979430000000     0.434510000000    -0.0317696  
N31      N      0.998890000000     0.599410000000     0.499320000000    -0.215524   
N32      N      0.997140000000     0.896380000000     0.500320000000    -0.205865   
N33      N      0.060950000000     0.601150000000     0.483280000000    -0.0319682  
N34      N      0.999820000000     0.099890000000     0.499150000000    -0.215137   
N35      N      0.994800000000     0.396020000000     0.503100000000    -0.206893   
N36      N      0.015440000000     0.103450000000     0.437010000000    -0.0314936  
O1       O      0.999650000000     0.047110000000     0.470450000000    -0.534518   
O2       O      0.998720000000     0.948500000000     0.471040000000    -0.550474   
O3       O      0.950000000000     0.998200000000     0.468940000000    -0.535358   
O4       O      0.048480000000     0.997360000000     0.472530000000    -0.552927   
O5       O      0.046400000000     0.997680000000     0.530310000000    -0.534484   
O6       O      0.947820000000     0.998670000000     0.526720000000    -0.556552   
O7       O      0.996620000000     0.948890000000     0.528940000000    -0.548751   
O8       O      0.997760000000     0.047510000000     0.528210000000    -0.555078   
O9       O      0.966760000000     0.448860000000     0.501750000000    -0.549175   
O10      O      0.968870000000     0.547550000000     0.500420000000    -0.553983   
O11      O      0.969180000000     0.497450000000     0.451880000000    -0.555962   
O12      O      0.966400000000     0.498850000000     0.550490000000    -0.534554   
O13      O      0.024110000000     0.497320000000     0.552220000000    -0.555597   
O14      O      0.027070000000     0.496710000000     0.453550000000    -0.549236   
O15      O      0.026600000000     0.546300000000     0.502410000000    -0.536554   
O16      O      0.024650000000     0.447790000000     0.503370000000    -0.557082   
O17      O      0.547420000000     0.978360000000     0.497470000000    -0.557569   
O18      O      0.448930000000     0.978370000000     0.498370000000    -0.555968   
O19      O      0.497640000000     0.977690000000     0.448550000000    -0.556634   
O20      O      0.498580000000     0.979250000000     0.547260000000    -0.556685   
O21      O      0.498770000000     0.037040000000     0.546250000000    -0.538503   
O22      O      0.497440000000     0.035490000000     0.447750000000    -0.53812    
O23      O      0.448790000000     0.036280000000     0.497710000000    -0.542863   
O24      O      0.547520000000     0.036270000000     0.496340000000    -0.552546   
O25      O      0.534850000000     0.997790000000     0.047050000000    -0.553811   
O26      O      0.535680000000     0.000890000000     0.948330000000    -0.548951   
O27      O      0.534800000000     0.048580000000     0.999270000000    -0.556909   
O28      O      0.535760000000     0.950060000000     0.996060000000    -0.536098   
O29      O      0.477970000000     0.949430000000     0.995540000000    -0.558005   
O30      O      0.476880000000     0.047990000000     0.998730000000    -0.55674    
O31      O      0.477770000000     0.000220000000     0.947970000000    -0.557868   
O32      O      0.476940000000     0.997110000000     0.046420000000    -0.558603   
O33      O      0.002430000000     0.464300000000     0.050880000000    -0.53496    
O34      O      0.998460000000     0.466220000000     0.952300000000    -0.551124   
O35      O      0.049600000000     0.464500000000     0.999550000000    -0.531513   
O36      O      0.951130000000     0.465980000000     0.003630000000    -0.555924   
O37      O      0.952100000000     0.523860000000     0.005430000000    -0.555639   
O38      O      0.050580000000     0.522280000000     0.000000000000    -0.555652   
O39      O      0.998640000000     0.524130000000     0.953460000000    -0.554639   
O40      O      0.004150000000     0.522040000000     0.051980000000    -0.556215   
O41      O      0.501010000000     0.450490000000     0.033350000000    -0.536135   
O42      O      0.500780000000     0.549030000000     0.031150000000    -0.556607   
O43      O      0.451570000000     0.499500000000     0.032370000000    -0.549077   
O44      O      0.550270000000     0.500030000000     0.032090000000    -0.55465    
O45      O      0.550040000000     0.498680000000     0.974280000000    -0.537303   
O46      O      0.451540000000     0.498310000000     0.974430000000    -0.557692   
O47      O      0.500670000000     0.547720000000     0.973220000000    -0.55064    
O48      O      0.500830000000     0.449120000000     0.975550000000    -0.556019   
O49      O      0.614880000000     0.505120000000     0.911920000000    -0.108915   
O50      O      0.587350000000     0.547300000000     0.941210000000    -0.101691   
O51      O      0.113650000000     0.401430000000     0.992840000000    -0.100458   
O52      O      0.086480000000     0.431240000000     0.950790000000    -0.0998546  
O53      O      0.568990000000     0.913130000000     0.947310000000    -0.101686   
O54      O      0.598450000000     0.885420000000     0.989270000000    -0.109316   
O55      O      0.495700000000     0.386620000000     0.096800000000    -0.108386   
O56      O      0.453070000000     0.412980000000     0.067100000000    -0.100993   
O57      O      0.494370000000     0.100200000000     0.610370000000    -0.107079   
O58      O      0.451350000000     0.070350000000     0.584810000000    -0.0994948  
O59      O      0.448610000000     0.066870000000     0.409320000000    -0.0993793  
O60      O      0.490510000000     0.096590000000     0.381830000000    -0.106576   
O61      O      0.903100000000     0.504010000000     0.614090000000    -0.108904   
O62      O      0.927060000000     0.456900000000     0.589570000000    -0.100706   
O63      O      0.002500000000     0.401140000000     0.115140000000    -0.105282   
O64      O      0.047380000000     0.426710000000     0.088190000000    -0.0912186  
O65      O      0.109750000000     0.993180000000     0.594600000000    -0.108102   
O66      O      0.084220000000     0.950310000000     0.564510000000    -0.100985   
O67      O      0.887160000000     0.992980000000     0.404550000000    -0.104239   
O68      O      0.912230000000     0.950350000000     0.435350000000    -0.100151   
O69      O      0.090150000000     0.609950000000     0.497850000000    -0.108931   
O70      O      0.061660000000     0.583000000000     0.454750000000    -0.102064   
O71      O      0.044820000000     0.086780000000     0.435620000000    -0.099029   
O72      O      0.000110000000     0.112100000000     0.408150000000    -0.103867   
V1       V      0.999300000000     0.997790000000     0.468460000000     1.42841    
V2       V      0.997050000000     0.998230000000     0.530840000000     1.40617    
V3       V      0.965510000000     0.498250000000     0.501100000000     1.40861    
V4       V      0.027890000000     0.497000000000     0.502970000000     1.41341    
V5       V      0.498170000000     0.976130000000     0.497940000000     1.39554    
V6       V      0.498160000000     0.038560000000     0.496970000000     1.42949    
V7       V      0.537570000000     0.999340000000     0.997710000000     1.41111    
V8       V      0.475110000000     0.998670000000     0.997170000000     1.40265    
V9       V      0.000340000000     0.462970000000     0.001550000000     1.42989    
V10      V      0.001380000000     0.525370000000     0.002770000000     1.39135    
V11      V      0.500930000000     0.499800000000     0.034540000000     1.40985    
V12      V      0.500790000000     0.498380000000     0.972080000000     1.4154     


