data_structure

_audit_creation_method RASPA-1.0
_audit_creation_date 2023-6-5
_audit_author_name 'Poobodin Mano'

_cell_length_a    62.8224
_cell_length_b    62.8222
_cell_length_c    38.0342
_cell_angle_alpha 89.9388
_cell_angle_beta  90.061
_cell_angle_gamma 119.938
_cell_volume      130078

_symmetry_cell_setting          triclinic
_symmetry_space_group_name_Hall 'P 1'
_symmetry_space_group_name_H-M  'P 1'
_symmetry_Int_Tables_number     1

_symmetry_equiv_pos_as_xyz 'x,y,z'

loop_
_atom_site_label
_atom_site_type_symbol
_atom_site_fract_x
_atom_site_fract_y
_atom_site_fract_z
_atom_site_charge
C1       C      0.826840000000     0.667150000000     0.706020000000     0.479004   
C2       C      0.847430000000     0.668860000000     0.576550000000     0.478727   
C3       C      0.882400000000     0.687510000000     0.657620000000     0.479665   
C4       C      0.792090000000     0.648580000000     0.624740000000     0.478626   
C5       C      0.182720000000     0.843240000000     0.738580000000     0.480774   
C6       C      0.161720000000     0.829290000000     0.868800000000     0.480495   
C7       C      0.217190000000     0.859720000000     0.819970000000     0.479297   
C8       C      0.126740000000     0.812250000000     0.787250000000     0.479487   
C9       C      0.494110000000     0.996950000000     0.037670000000     0.480373   
C10      C      0.514880000000     0.999010000000     0.908160000000     0.479203   
C11      C      0.549770000000     0.017180000000     0.989440000000     0.478515   
C12      C      0.459490000000     0.979020000000     0.956800000000     0.480415   
C13      C      0.159650000000     0.326820000000     0.369840000000     0.48184    
C14      C      0.182610000000     0.332460000000     0.240730000000     0.479746   
C15      C      0.216500000000     0.351960000000     0.322440000000     0.480789   
C16      C      0.126260000000     0.307300000000     0.287680000000     0.479261   
C17      C      0.831520000000     0.147500000000     0.198400000000     0.48128    
C18      C      0.848310000000     0.168260000000     0.068480000000     0.481138   
C19      C      0.793860000000     0.131800000000     0.119160000000     0.480403   
C20      C      0.885030000000     0.183580000000     0.147380000000     0.480165   
C21      C      0.513750000000     0.516830000000     0.409730000000     0.4796     
C22      C      0.494130000000     0.498550000000     0.539540000000     0.479385   
C23      C      0.549330000000     0.533120000000     0.490250000000     0.479848   
C24      C      0.458730000000     0.482580000000     0.458750000000     0.478647   
C25      C      0.172300000000     0.328030000000     0.871200000000     0.481398   
C26      C      0.160180000000     0.334150000000     0.740190000000     0.479967   
C27      C      0.191410000000     0.310610000000     0.791530000000     0.481357   
C28      C      0.141260000000     0.351770000000     0.819930000000     0.480482   
C29      C      0.349380000000     0.170140000000     0.705150000000     0.481212   
C30      C      0.339420000000     0.181780000000     0.575080000000     0.480016   
C31      C      0.319960000000     0.196630000000     0.656640000000     0.479854   
C32      C      0.369030000000     0.155260000000     0.623530000000     0.481282   
C33      C      0.999420000000     0.508860000000     0.906010000000     0.472491   
C34      C      0.006030000000     0.493990000000     0.035640000000     0.488688   
C35      C      0.023840000000     0.477360000000     0.954090000000     0.479033   
C36      C      0.981700000000     0.525710000000     0.987160000000     0.472052   
C37      C      0.663020000000     0.839180000000     0.237600000000     0.480516   
C38      C      0.669460000000     0.825590000000     0.367870000000     0.480352   
C39      C      0.690950000000     0.811530000000     0.287250000000     0.480865   
C40      C      0.641710000000     0.853280000000     0.318250000000     0.480896   
C41      C      0.826400000000     0.666830000000     0.076230000000     0.47989    
C42      C      0.845620000000     0.667450000000     0.206290000000     0.480336   
C43      C      0.812210000000     0.688710000000     0.156680000000     0.479557   
C44      C      0.859790000000     0.645510000000     0.125850000000     0.479459   
C45      C      0.499460000000     0.007600000000     0.407720000000     0.479066   
C46      C      0.514540000000     0.003310000000     0.538140000000     0.48054    
C47      C      0.485660000000     0.029340000000     0.488180000000     0.47976    
C48      C      0.528240000000     0.981170000000     0.457470000000     0.479644   
C49      C      0.333860000000     0.174700000000     0.204460000000     0.480893   
C50      C      0.335740000000     0.157190000000     0.074460000000     0.479237   
C51      C      0.355410000000     0.211580000000     0.124700000000     0.479433   
C52      C      0.314490000000     0.120690000000     0.154070000000     0.479434   
C53      C      0.488820000000     0.488910000000     0.910050000000     0.480982   
C54      C      0.500800000000     0.510860000000     0.040060000000     0.481086   
C55      C      0.516150000000     0.545350000000     0.958190000000     0.48031    
C56      C      0.473750000000     0.454750000000     0.991470000000     0.480832   
C57      C      0.180390000000     0.842840000000     0.367780000000     0.479746   
C58      C      0.165940000000     0.820930000000     0.238160000000     0.480159   
C59      C      0.151300000000     0.786840000000     0.320110000000     0.479589   
C60      C      0.194940000000     0.877220000000     0.286210000000     0.479973   
C61      C      0.996010000000     0.490900000000     0.405120000000     0.474865   
C62      C      0.006100000000     0.507840000000     0.536530000000     0.490515   
C63      C      0.976790000000     0.453560000000     0.484370000000     0.473123   
C64      C      0.025140000000     0.545150000000     0.457430000000     0.481351   
C65      C      0.846340000000     0.175940000000     0.698610000000     0.479748   
C66      C      0.834590000000     0.154120000000     0.568840000000     0.479772   
C67      C      0.819710000000     0.119830000000     0.650210000000     0.480761   
C68      C      0.861440000000     0.210230000000     0.616870000000     0.479308   
C69      C      0.664720000000     0.820640000000     0.738410000000     0.481511   
C70      C      0.674880000000     0.843410000000     0.868130000000     0.481165   
C71      C      0.645430000000     0.787240000000     0.820440000000     0.479924   
C72      C      0.694130000000     0.877250000000     0.785880000000     0.479794   
C73      C      0.808010000000     0.058050000000     0.677960000000    -0.107607   
C74      C      0.695180000000     0.914380000000     0.769660000000     0.077298   
C75      C      0.731790000000     0.912230000000     0.768250000000     0.0771907  
C76      C      0.707710000000     0.938420000000     0.756880000000    -0.097883   
C77      C      0.742230000000     0.993330000000     0.747310000000    -0.0364541  
C78      C      0.754380000000     0.016860000000     0.732610000000    -0.0347003  
C79      C      0.746090000000     0.974660000000     0.734030000000    -0.0079237  
C80      C      0.744850000000     0.936200000000     0.755190000000    -0.0973474  
C81      C      0.770580000000     0.022240000000     0.704160000000    -0.010237   
C82      C      0.771430000000     0.060690000000     0.684070000000    -0.0999725  
C83      C      0.774410000000     0.003530000000     0.690910000000    -0.0347566  
C84      C      0.783950000000     0.084410000000     0.670320000000     0.0760729  
C85      C      0.820290000000     0.081900000000     0.663800000000     0.10732    
C86      C      0.762370000000     0.980040000000     0.705740000000    -0.0363673  
C87      C      0.732780000000     0.949520000000     0.749110000000     0.0511578  
C88      C      0.783500000000     0.047320000000     0.688550000000     0.0559444  
C89      C      0.927100000000     0.391090000000     0.509740000000    -0.107468   
C90      C      0.897490000000     0.247190000000     0.600210000000     0.0770094  
C91      C      0.858910000000     0.245410000000     0.599720000000     0.0769405  
C92      C      0.908960000000     0.271180000000     0.587240000000    -0.0976048  
C93      C      0.925440000000     0.314950000000     0.539030000000    -0.0362257  
C94      C      0.936510000000     0.338540000000     0.524580000000    -0.0352965  
C95      C      0.906860000000     0.307640000000     0.564540000000    -0.00807685 
C96      C      0.869780000000     0.269350000000     0.586580000000    -0.0973237  
C97      C      0.929170000000     0.355340000000     0.535130000000    -0.0102074  
C98      C      0.966480000000     0.394060000000     0.515780000000    -0.100164   
C99      C      0.910540000000     0.348050000000     0.560480000000    -0.0352899  
C100     C      0.977500000000     0.417960000000     0.502780000000     0.0752606  
C101     C      0.938490000000     0.415140000000     0.496270000000     0.106435   
C102     C      0.899550000000     0.324490000000     0.575070000000    -0.0360974  
C103     C      0.895070000000     0.282480000000     0.579810000000     0.0508584  
C104     C      0.941080000000     0.380500000000     0.520020000000     0.0557369  
C105     C      0.041670000000     0.609060000000     0.434130000000    -0.106598   
C106     C      0.152400000000     0.750510000000     0.335230000000     0.0769007  
C107     C      0.115290000000     0.751460000000     0.340820000000     0.0778607  
C108     C      0.141130000000     0.726750000000     0.349190000000    -0.0975373  
C109     C      0.107130000000     0.671510000000     0.362400000000    -0.0360497  
C110     C      0.094870000000     0.648070000000     0.377500000000    -0.0345877  
C111     C      0.104480000000     0.690700000000     0.376550000000    -0.00786747 
C112     C      0.103550000000     0.727860000000     0.355100000000    -0.0978233  
C113     C      0.079840000000     0.643400000000     0.407230000000    -0.00973614 
C114     C      0.076060000000     0.603110000000     0.424710000000    -0.0995762  
C115     C      0.077780000000     0.662840000000     0.421880000000    -0.0345918  
C116     C      0.062220000000     0.579250000000     0.437690000000     0.0768455  
C117     C      0.028080000000     0.585090000000     0.447520000000     0.107017   
C118     C      0.089870000000     0.686160000000     0.406640000000    -0.0358293  
C119     C      0.116540000000     0.715340000000     0.359870000000     0.0515536  
C120     C      0.065730000000     0.618210000000     0.422260000000     0.0562894  
C121     C      0.528810000000     0.607220000000     0.928910000000    -0.107048   
C122     C      0.644100000000     0.750120000000     0.837730000000     0.0776387  
C123     C      0.607570000000     0.752440000000     0.837690000000     0.0774464  
C124     C      0.631330000000     0.726180000000     0.850890000000    -0.0972992  
C125     C      0.596360000000     0.671340000000     0.861170000000    -0.0361029  
C126     C      0.583680000000     0.647870000000     0.875980000000    -0.0347121  
C127     C      0.592530000000     0.690220000000     0.873550000000    -0.00786044 
C128     C      0.594280000000     0.728600000000     0.851050000000    -0.097663   
C129     C      0.566970000000     0.642770000000     0.903670000000    -0.00998473 
C130     C      0.565300000000     0.604250000000     0.925080000000    -0.0998284  
C131     C      0.563180000000     0.661700000000     0.916060000000    -0.034872   
C132     C      0.552360000000     0.580580000000     0.938850000000     0.0763704  
C133     C      0.516040000000     0.583360000000     0.943060000000     0.106384   
C134     C      0.575770000000     0.685130000000     0.901120000000    -0.036117   
C135     C      0.606180000000     0.715250000000     0.858110000000     0.0513464  
C136     C      0.553520000000     0.617760000000     0.919440000000     0.055979   
C137     C      0.207650000000     0.939050000000     0.257060000000    -0.10781    
C138     C      0.317300000000     0.085690000000     0.171410000000     0.0772193  
C139     C      0.278330000000     0.082840000000     0.167170000000     0.0776003  
C140     C      0.306380000000     0.061410000000     0.183170000000    -0.097066   
C141     C      0.280320000000     0.015600000000     0.228230000000    -0.0357998  
C142     C      0.268620000000     0.991900000000     0.242450000000    -0.0351347  
C143     C      0.268910000000     0.022050000000     0.201700000000    -0.00781273 
C144     C      0.266840000000     0.058610000000     0.179150000000    -0.0971198  
C145     C      0.245160000000     0.974200000000     0.230730000000    -0.0101486  
C146     C      0.244050000000     0.935960000000     0.252270000000    -0.100177   
C147     C      0.233880000000     0.980470000000     0.203930000000    -0.0351772  
C148     C      0.231180000000     0.912310000000     0.266300000000     0.0757839  
C149     C      0.195070000000     0.915380000000     0.271740000000     0.10698    
C150     C      0.245650000000     0.004060000000     0.189460000000    -0.0357893  
C151     C      0.280850000000     0.047580000000     0.187600000000     0.0509883  
C152     C      0.232150000000     0.949380000000     0.246840000000     0.0562145  
C153     C      0.461830000000     0.393120000000     0.020210000000    -0.107615   
C154     C      0.352640000000     0.246660000000     0.107650000000     0.0773093  
C155     C      0.391550000000     0.249310000000     0.111060000000     0.0772482  
C156     C      0.363560000000     0.270900000000     0.095690000000    -0.097147   
C157     C      0.389370000000     0.316380000000     0.049950000000    -0.0356562  
C158     C      0.400990000000     0.340000000000     0.035490000000    -0.0349118  
C159     C      0.400970000000     0.310030000000     0.076300000000    -0.00779458 
C160     C      0.403040000000     0.273490000000     0.098890000000    -0.0973352  
C161     C      0.424560000000     0.357740000000     0.046800000000    -0.00997389 
C162     C      0.425200000000     0.395770000000     0.025490000000    -0.0998399  
C163     C      0.436070000000     0.351550000000     0.073360000000    -0.0351032  
C164     C      0.437800000000     0.419430000000     0.011460000000     0.076537   
C165     C      0.474130000000     0.416800000000     0.005540000000     0.107206   
C166     C      0.424370000000     0.328030000000     0.088070000000    -0.0358259  
C167     C      0.389050000000     0.284590000000     0.090720000000     0.0510216  
C168     C      0.437340000000     0.382560000000     0.030680000000     0.056413   
C169     C      0.675620000000     0.805600000000     0.648410000000    -0.108138   
C170     C      0.652530000000     0.801760000000     0.419760000000     0.0776762  
C171     C      0.688030000000     0.841220000000     0.423590000000     0.0776481  
C172     C      0.651830000000     0.799390000000     0.456320000000    -0.0977593  
C173     C      0.670020000000     0.837410000000     0.535310000000    -0.0361173  
C174     C      0.668040000000     0.836160000000     0.571900000000    -0.0348071  
C175     C      0.667620000000     0.817310000000     0.515890000000    -0.00815272 
C176     C      0.687710000000     0.839560000000     0.460210000000    -0.0979829  
C177     C      0.663850000000     0.814870000000     0.589890000000    -0.0104627  
C178     C      0.648400000000     0.822050000000     0.646620000000    -0.100636   
C179     C      0.661530000000     0.794770000000     0.570520000000    -0.0349833  
C180     C      0.648550000000     0.822680000000     0.683250000000     0.0772865  
C181     C      0.675640000000     0.806480000000     0.685310000000     0.108434   
C182     C      0.663240000000     0.795920000000     0.533830000000    -0.0363031  
C183     C      0.669250000000     0.818630000000     0.477000000000     0.0515752  
C184     C      0.662460000000     0.813990000000     0.628820000000     0.05663    
C185     C      0.692270000000     0.848130000000     0.962490000000    -0.108568   
C186     C      0.679110000000     0.863490000000     0.185870000000     0.0777412  
C187     C      0.644750000000     0.823250000000     0.181850000000     0.0777225  
C188     C      0.679690000000     0.865940000000     0.149310000000    -0.0980458  
C189     C      0.666490000000     0.867380000000     0.071020000000    -0.0364571  
C190     C      0.668920000000     0.868400000000     0.034380000000    -0.0352163  
C191     C      0.665010000000     0.847420000000     0.089850000000    -0.00846135 
C192     C      0.645090000000     0.824930000000     0.145250000000    -0.0983975  
C193     C      0.670480000000     0.849770000000     0.016220000000    -0.0107602  
C194     C      0.657180000000     0.853300000000     0.955670000000    -0.100785   
C195     C      0.669090000000     0.829910000000     0.035110000000    -0.0349001  
C196     C      0.658850000000     0.851630000000     0.919330000000     0.0760677  
C197     C      0.694040000000     0.847030000000     0.925820000000     0.107011   
C198     C      0.666180000000     0.828650000000     0.071540000000    -0.0360759  
C199     C      0.662930000000     0.846290000000     0.128620000000     0.051846   
C200     C      0.673520000000     0.850770000000     0.977590000000     0.056736   
C201     C      0.740860000000     0.799660000000     0.258910000000    -0.107161   
C202     C      0.775220000000     0.687140000000     0.175350000000     0.0773372  
C203     C      0.812010000000     0.725510000000     0.170820000000     0.0776083  
C204     C      0.762730000000     0.698700000000     0.188210000000    -0.097397   
C205     C      0.739170000000     0.730890000000     0.197090000000    -0.0362741  
C206     C      0.727600000000     0.743030000000     0.211260000000    -0.0346322  
C207     C      0.762750000000     0.736720000000     0.208430000000    -0.00790372 
C208     C      0.800140000000     0.737610000000     0.183870000000    -0.0978721  
C209     C      0.739300000000     0.761160000000     0.237280000000    -0.0100948  
C210     C      0.702060000000     0.762310000000     0.258330000000    -0.0999276  
C211     C      0.762770000000     0.766690000000     0.248930000000    -0.034813   
C212     C      0.690920000000     0.775220000000     0.270810000000     0.0761057  
C213     C      0.729380000000     0.812390000000     0.271780000000     0.106557   
C214     C      0.774380000000     0.754690000000     0.234580000000    -0.0361648  
C215     C      0.775300000000     0.724180000000     0.193120000000     0.05144    
C216     C      0.727240000000     0.774510000000     0.251790000000     0.0559211  
C217     C      0.592180000000     0.865290000000     0.348010000000    -0.107344   
C218     C      0.564130000000     0.980170000000     0.439820000000     0.0772544  
C219     C      0.525700000000     0.943270000000     0.441880000000     0.0771929  
C220     C      0.575380000000     0.967490000000     0.426620000000    -0.0976686  
C221     C      0.595770000000     0.932890000000     0.415960000000    -0.0364229  
C222     C      0.606530000000     0.920320000000     0.400690000000    -0.0346933  
C223     C      0.572720000000     0.928650000000     0.404460000000    -0.00804411 
C224     C      0.536330000000     0.930060000000     0.428500000000    -0.0979769  
C225     C      0.594570000000     0.903340000000     0.373400000000    -0.0102462  
C226     C      0.631340000000     0.902180000000     0.350660000000    -0.100331   
C227     C      0.571500000000     0.899130000000     0.361920000000    -0.0348694  
C228     C      0.642190000000     0.889410000000     0.336730000000     0.0765512  
C229     C      0.603410000000     0.852710000000     0.333650000000     0.106634   
C230     C      0.560680000000     0.911590000000     0.377340000000    -0.036192   
C231     C      0.561390000000     0.942200000000     0.420300000000     0.0512235  
C232     C      0.606150000000     0.890100000000     0.357100000000     0.0560603  
C233     C      0.022580000000     0.508710000000     0.630570000000    -0.11282    
C234     C      0.016740000000     0.532160000000     0.853790000000     0.0786397  
C235     C      0.979470000000     0.494070000000     0.850950000000     0.0728175  
C236     C      0.017160000000     0.534270000000     0.817210000000    -0.084177   
C237     C      0.005060000000     0.536670000000     0.738930000000    -0.0496202  
C238     C      0.007030000000     0.536790000000     0.702280000000    -0.0226665  
C239     C      0.000460000000     0.515760000000     0.758340000000     0.0193616  
C240     C      0.979510000000     0.495440000000     0.814360000000    -0.0903741  
C241     C      0.004930000000     0.516180000000     0.684670000000    -0.0251141  
C242     C      0.992870000000     0.521840000000     0.624410000000    -0.111641   
C243     C      0.000430000000     0.495350000000     0.704150000000    -0.00607083 
C244     C      0.993400000000     0.519240000000     0.588100000000     0.0749441  
C245     C      0.023130000000     0.506460000000     0.593920000000     0.110303   
C246     C      0.998070000000     0.495090000000     0.740600000000    -0.066564   
C247     C      0.998760000000     0.515440000000     0.797110000000     0.0289413  
C248     C      0.007140000000     0.516040000000     0.646000000000     0.0711967  
C249     C      0.980010000000     0.490650000000     0.310960000000    -0.108315   
C250     C      0.988750000000     0.470300000000     0.087520000000     0.0736029  
C251     C      0.025480000000     0.508840000000     0.091040000000     0.0797378  
C252     C      0.988110000000     0.467960000000     0.124060000000    -0.104614   
C253     C      0.999820000000     0.465100000000     0.202200000000    -0.0476054  
C254     C      0.997370000000     0.464430000000     0.238790000000    -0.0301439  
C255     C      0.004130000000     0.486100000000     0.183270000000     0.00113799 
C256     C      0.025190000000     0.507250000000     0.127640000000    -0.0990867  
C257     C      0.998710000000     0.484560000000     0.256850000000    -0.020376   
C258     C      0.010360000000     0.478350000000     0.317060000000    -0.0944428  
C259     C      0.002940000000     0.505490000000     0.237860000000    -0.0232918  
C260     C      0.009360000000     0.480350000000     0.353410000000     0.0814494  
C261     C      0.978980000000     0.492260000000     0.347670000000     0.105746   
C262     C      0.005780000000     0.506320000000     0.201450000000    -0.0413388  
C263     C      0.006120000000     0.486870000000     0.144510000000     0.0569669  
C264     C      0.996040000000     0.484090000000     0.295490000000     0.052139   
C265     C      0.969750000000     0.575630000000     0.014240000000    -0.105297   
C266     C      0.860340000000     0.608640000000     0.113400000000     0.0774086  
C267     C      0.896470000000     0.647180000000     0.105490000000     0.0771104  
C268     C      0.872200000000     0.596490000000     0.100440000000    -0.0973912  
C269     C      0.896540000000     0.577610000000     0.050400000000    -0.0361398  
C270     C      0.908350000000     0.566030000000     0.035240000000    -0.0351672  
C271     C      0.909170000000     0.597400000000     0.073720000000    -0.00795298 
C272     C      0.908890000000     0.635610000000     0.092400000000    -0.0973063  
C273     C      0.933080000000     0.574000000000     0.042980000000    -0.00994756 
C274     C      0.933830000000     0.536310000000     0.023350000000    -0.0994242  
C275     C      0.945690000000     0.593730000000     0.066400000000    -0.0353464  
C276     C      0.946180000000     0.525120000000     0.008930000000     0.0754024  
C277     C      0.981860000000     0.564050000000     0.999510000000     0.0989168  
C278     C      0.933870000000     0.605290000000     0.081590000000    -0.0363582  
C279     C      0.896670000000     0.609970000000     0.089290000000     0.0509293  
C280     C      0.945720000000     0.561800000000     0.026720000000     0.0544854  
C281     C      0.366180000000     0.181850000000     0.799880000000    -0.10678    
C282     C      0.318540000000     0.152130000000     0.017210000000     0.0776023  
C283     C      0.356320000000     0.152810000000     0.024730000000     0.0773109  
C284     C      0.320170000000     0.150640000000     0.980810000000    -0.0973386  
C285     C      0.322620000000     0.137880000000     0.905060000000    -0.0360489  
C286     C      0.324960000000     0.140000000000     0.868520000000    -0.0346425  
C287     C      0.343250000000     0.150690000000     0.926920000000    -0.00763352 
C288     C      0.358420000000     0.151090000000     0.988400000000    -0.0973485  
C289     C      0.348050000000     0.154790000000     0.852830000000    -0.00976144 
C290     C      0.335350000000     0.139770000000     0.791010000000    -0.0998154  
C291     C      0.368840000000     0.166770000000     0.874650000000    -0.0348553  
C292     C      0.336040000000     0.144290000000     0.755050000000     0.0766438  
C293     C      0.366810000000     0.186060000000     0.763490000000     0.10656    
C294     C      0.366460000000     0.164840000000     0.911220000000    -0.0357571  
C295     C      0.340440000000     0.150420000000     0.965840000000     0.0510811  
C296     C      0.350160000000     0.158710000000     0.814050000000     0.0558394  
C297     C      0.311440000000     0.173060000000     0.295260000000    -0.108523   
C298     C      0.356710000000     0.202290000000     0.520970000000     0.0772263  
C299     C      0.316540000000     0.167750000000     0.521950000000     0.0776627  
C300     C      0.355890000000     0.203420000000     0.484320000000    -0.0966834  
C301     C      0.347150000000     0.207870000000     0.407040000000    -0.0357851  
C302     C      0.347130000000     0.207280000000     0.370250000000    -0.0353852  
C303     C      0.334270000000     0.186010000000     0.426660000000    -0.0077869  
C304     C      0.314870000000     0.168720000000     0.485460000000    -0.097129   
C305     C      0.333800000000     0.184900000000     0.352360000000    -0.0104849  
C306     C      0.355420000000     0.192380000000     0.294860000000    -0.10079    
C307     C      0.320710000000     0.163130000000     0.371690000000    -0.03521    
C308     C      0.354680000000     0.189070000000     0.258530000000     0.0771779  
C309     C      0.311040000000     0.170240000000     0.258610000000     0.107446   
C310     C      0.321150000000     0.163620000000     0.408360000000    -0.0356009  
C311     C      0.334930000000     0.186270000000     0.465920000000     0.0507925  
C312     C      0.333630000000     0.183940000000     0.313550000000     0.056856   
C313     C      0.418990000000     0.143700000000     0.594570000000    -0.107223   
C314     C      0.449580000000     0.030090000000     0.505220000000     0.0776408  
C315     C      0.487850000000     0.067170000000     0.503400000000     0.0776364  
C316     C      0.438030000000     0.042630000000     0.517820000000    -0.0978283  
C317     C      0.417100000000     0.076860000000     0.526840000000    -0.0362611  
C318     C      0.405860000000     0.089130000000     0.541630000000    -0.0347658  
C319     C      0.440050000000     0.081300000000     0.539130000000    -0.00798059 
C320     C      0.476930000000     0.080240000000     0.516270000000    -0.0977696  
C321     C      0.417250000000     0.105980000000     0.569230000000    -0.0100691  
C322     C      0.379940000000     0.106800000000     0.590520000000    -0.0999368  
C323     C      0.440220000000     0.110360000000     0.581520000000    -0.0347203  
C324     C      0.368800000000     0.119380000000     0.604250000000     0.0762874  
C325     C      0.407510000000     0.156070000000     0.608760000000     0.106606   
C326     C      0.451520000000     0.098230000000     0.566560000000    -0.0360268  
C327     C      0.451780000000     0.067940000000     0.523960000000     0.0515196  
C328     C      0.405240000000     0.118990000000     0.584990000000     0.0561187  
C329     C      0.090970000000     0.363480000000     0.846280000000    -0.106961   
C330     C      0.060160000000     0.476490000000     0.938800000000     0.077668   
C331     C      0.021450000000     0.440020000000     0.935430000000     0.077682   
C332     C      0.071790000000     0.464150000000     0.925680000000    -0.0973449  
C333     C      0.088690000000     0.437690000000     0.876320000000    -0.0359106  
C334     C      0.099870000000     0.425350000000     0.861610000000    -0.0347548  
C335     C      0.069880000000     0.426080000000     0.901380000000    -0.00756315 
C336     C      0.032490000000     0.427130000000     0.922240000000    -0.0968969  
C337     C      0.092490000000     0.401090000000     0.871570000000    -0.00982542 
C338     C      0.130040000000     0.400240000000     0.851810000000    -0.0999126  
C339     C      0.073620000000     0.389430000000     0.896530000000    -0.0345778  
C340     C      0.141330000000     0.387670000000     0.838590000000     0.0767637  
C341     C      0.102640000000     0.351110000000     0.832700000000     0.106933   
C342     C      0.062450000000     0.401790000000     0.911280000000    -0.0357229  
C343     C      0.057920000000     0.439230000000     0.916810000000     0.0514108  
C344     C      0.104650000000     0.388100000000     0.856350000000     0.0563304  
C345     C      0.242410000000     0.299960000000     0.766010000000    -0.108036   
C346     C      0.281930000000     0.193990000000     0.671890000000     0.0774575  
C347     C      0.318850000000     0.232340000000     0.674750000000     0.0776316  
C348     C      0.268580000000     0.204670000000     0.684590000000    -0.0974721  
C349     C      0.247970000000     0.228510000000     0.732540000000    -0.0358798  
C350     C      0.235530000000     0.239590000000     0.747280000000    -0.034848   
C351     C      0.266940000000     0.241240000000     0.707990000000    -0.00773405 
C352     C      0.306080000000     0.243580000000     0.687660000000    -0.0971643  
C353     C      0.241890000000     0.263690000000     0.738000000000    -0.0101103  
C354     C      0.203630000000     0.263200000000     0.757780000000    -0.100167   
C355     C      0.260700000000     0.276360000000     0.713300000000    -0.0348547  
C356     C      0.191890000000     0.275190000000     0.771580000000     0.0767601  
C357     C      0.230310000000     0.311650000000     0.780310000000     0.107842   
C358     C      0.273030000000     0.265250000000     0.698390000000    -0.0359267  
C359     C      0.280660000000     0.229710000000     0.693040000000     0.0513032  
C360     C      0.229100000000     0.275750000000     0.754110000000     0.0565091  
C361     C      0.496890000000     0.473410000000     0.818860000000    -0.106659   
C362     C      0.483600000000     0.508240000000     0.595140000000     0.0774651  
C363     C      0.493490000000     0.476500000000     0.590870000000     0.0772223  
C364     C      0.480800000000     0.504980000000     0.631540000000    -0.097998   
C365     C      0.463260000000     0.481000000000     0.705370000000    -0.0365984  
C366     C      0.462720000000     0.479330000000     0.742070000000    -0.0346081  
C367     C      0.484250000000     0.485240000000     0.686690000000    -0.0081543  
C368     C      0.491410000000     0.473160000000     0.627260000000    -0.0984166  
C369     C      0.483420000000     0.482440000000     0.760950000000    -0.00975616 
C370     C      0.470530000000     0.490850000000     0.819530000000    -0.0991821  
C371     C      0.504410000000     0.486680000000     0.741920000000    -0.034499   
C372     C      0.471760000000     0.491590000000     0.856130000000     0.0775714  
C373     C      0.498280000000     0.474730000000     0.855760000000     0.10781    
C374     C      0.504710000000     0.487800000000     0.705220000000    -0.0363454  
C375     C      0.485170000000     0.487590000000     0.647970000000     0.0516029  
C376     C      0.483480000000     0.482080000000     0.800240000000     0.0556064  
C377     C      0.489250000000     0.516860000000     0.134530000000    -0.106695   
C378     C      0.519530000000     0.504020000000     0.353420000000     0.0773387  
C379     C      0.518290000000     0.540960000000     0.358810000000     0.0769378  
C380     C      0.521190000000     0.506530000000     0.316910000000    -0.0971694  
C381     C      0.533850000000     0.520210000000     0.240650000000    -0.0361727  
C382     C      0.531630000000     0.519570000000     0.204050000000    -0.0346681  
C383     C      0.520910000000     0.528350000000     0.261690000000    -0.00763646 
C384     C      0.520150000000     0.544150000000     0.322320000000    -0.0969456  
C385     C      0.516600000000     0.527270000000     0.187450000000    -0.00977668 
C386     C      0.531380000000     0.528230000000     0.125780000000    -0.0994747  
C387     C      0.504510000000     0.536420000000     0.208400000000    -0.0349542  
C388     C      0.526740000000     0.523750000000     0.089910000000     0.0765865  
C389     C      0.484900000000     0.512590000000     0.098260000000     0.106627   
C390     C      0.506540000000     0.536840000000     0.245030000000    -0.0358586  
C391     C      0.521170000000     0.526580000000     0.300770000000     0.0507791  
C392     C      0.512510000000     0.524490000000     0.148700000000     0.0557039  
C393     C      0.858880000000     0.198290000000     0.981060000000    -0.108113   
C394     C      0.829550000000     0.179060000000     0.753160000000     0.0772103  
C395     C      0.869580000000     0.184190000000     0.751490000000     0.0772309  
C396     C      0.830530000000     0.180700000000     0.789770000000    -0.0982348  
C397     C      0.831820000000     0.164380000000     0.864860000000    -0.0361269  
C398     C      0.832390000000     0.162890000000     0.901420000000    -0.0350447  
C399     C      0.851740000000     0.183260000000     0.846600000000    -0.00844414 
C400     C      0.871290000000     0.186240000000     0.788110000000    -0.0978799  
C401     C      0.852740000000     0.180430000000     0.920540000000    -0.0106696  
C402     C      0.848030000000     0.156060000000     0.974610000000    -0.101007   
C403     C      0.872500000000     0.199610000000     0.902420000000    -0.0352444  
C404     C      0.847610000000     0.153820000000     0.011040000000     0.0775966  
C405     C      0.858100000000     0.195620000000     0.017840000000     0.107572   
C406     C      0.872100000000     0.200880000000     0.865700000000    -0.0364592  
C407     C      0.851390000000     0.183890000000     0.807670000000     0.0514285  
C408     C      0.853330000000     0.178310000000     0.959270000000     0.0566049  
C409     C      0.835970000000     0.127730000000     0.288850000000    -0.108491   
C410     C      0.813260000000     0.149800000000     0.515170000000     0.077206   
C411     C      0.848090000000     0.144580000000     0.515720000000     0.0773483  
C412     C      0.811280000000     0.146740000000     0.478730000000    -0.0969662  
C413     C      0.804530000000     0.130690000000     0.402800000000    -0.0358372  
C414     C      0.803890000000     0.130160000000     0.366030000000    -0.0355167  
C415     C      0.827050000000     0.140500000000     0.420990000000    -0.00793372 
C416     C      0.846300000000     0.140870000000     0.479390000000    -0.0970493  
C417     C      0.825670000000     0.138870000000     0.346710000000    -0.0104698  
C418     C      0.815810000000     0.151630000000     0.289740000000    -0.100616   
C419     C      0.848080000000     0.148160000000     0.364610000000    -0.0353463  
C420     C      0.817960000000     0.153740000000     0.253250000000     0.0775456  
C421     C      0.837600000000     0.129650000000     0.252040000000     0.107508   
C422     C      0.848810000000     0.149210000000     0.401280000000    -0.0356804  
C423     C      0.828040000000     0.142430000000     0.460160000000     0.0506541  
C424     C      0.825320000000     0.138970000000     0.307870000000     0.0567641  
C425     C      0.145100000000     0.340710000000     0.458410000000    -0.10823    
C426     C      0.137570000000     0.316640000000     0.687520000000     0.0776414  
C427     C      0.175930000000     0.353620000000     0.684980000000     0.0775919  
C428     C      0.135720000000     0.316170000000     0.650890000000    -0.097706   
C429     C      0.174670000000     0.335760000000     0.573430000000    -0.0361398  
C430     C      0.174000000000     0.333660000000     0.536850000000    -0.034713   
C431     C      0.154130000000     0.333050000000     0.591970000000    -0.00808698 
C432     C      0.174840000000     0.353490000000     0.648300000000    -0.0978809  
C433     C      0.152900000000     0.329140000000     0.518030000000    -0.0105334  
C434     C      0.159930000000     0.312220000000     0.462710000000    -0.10065    
C435     C      0.132430000000     0.326680000000     0.536500000000    -0.0347935  
C436     C      0.160780000000     0.311590000000     0.426140000000     0.0777167  
C437     C      0.146320000000     0.340030000000     0.421560000000     0.108401   
C438     C      0.132960000000     0.328400000000     0.573200000000    -0.0362284  
C439     C      0.154730000000     0.334450000000     0.630870000000     0.0516894  
C440     C      0.152490000000     0.327230000000     0.479200000000     0.056894   
C441     C      0.161280000000     0.310830000000     0.965750000000    -0.106782   
C442     C      0.188230000000     0.351880000000     0.185040000000     0.0776421  
C443     C      0.189770000000     0.315050000000     0.189560000000     0.0773446  
C444     C      0.190530000000     0.351820000000     0.148560000000    -0.0970633  
C445     C      0.204190000000     0.352700000000     0.072270000000    -0.0359964  
C446     C      0.202130000000     0.351410000000     0.035640000000    -0.0346469  
C447     C      0.192330000000     0.331290000000     0.092900000000    -0.00750021 
C448     C      0.192350000000     0.314560000000     0.153120000000    -0.0969123  
C449     C      0.188340000000     0.328630000000     0.018660000000    -0.00962286 
C450     C      0.202660000000     0.343450000000     0.957120000000    -0.0995968  
C451     C      0.177430000000     0.307140000000     0.039200000000    -0.0347558  
C452     C      0.197920000000     0.342990000000     0.921230000000     0.0767927  
C453     C      0.156840000000     0.310520000000     0.929500000000     0.106658   
C454     C      0.179270000000     0.308450000000     0.075830000000    -0.035694   
C455     C      0.192210000000     0.332790000000     0.131990000000     0.0509971  
C456     C      0.184220000000     0.327400000000     0.979950000000     0.0558747  
C457     C      0.945940000000     0.234730000000     0.175010000000    -0.106158   
C458     C      0.089930000000     0.270210000000     0.272180000000     0.0781657  
C459     C      0.090790000000     0.308260000000     0.267570000000     0.0782255  
C460     C      0.066140000000     0.257850000000     0.258440000000    -0.0985083  
C461     C      0.023290000000     0.239540000000     0.207610000000    -0.0221174  
C462     C      0.999980000000     0.227700000000     0.192190000000    -0.0488608  
C463     C      0.029550000000     0.258240000000     0.232590000000    -0.0151766  
C464     C      0.066990000000     0.296470000000     0.253800000000    -0.0983954  
C465     C      0.982360000000     0.234280000000     0.201360000000    -0.00251704 
C466     C      0.945070000000     0.196230000000     0.179780000000    -0.0984785  
C467     C      0.988610000000     0.252980000000     0.226350000000    -0.0486636  
C468     C      0.921390000000     0.184450000000     0.165800000000     0.0760685  
C469     C      0.922120000000     0.222560000000     0.160730000000     0.106925   
C470     C      0.011930000000     0.264830000000     0.241760000000    -0.0221487  
C471     C      0.054460000000     0.270990000000     0.248660000000     0.0547336  
C472     C      0.957460000000     0.221570000000     0.185190000000     0.0524546  
C473     C      0.278930000000     0.365990000000     0.350410000000    -0.107237   
C474     C      0.420680000000     0.480440000000     0.445110000000     0.0770775  
C475     C      0.424520000000     0.444930000000     0.439390000000     0.0769568  
C476     C      0.396660000000     0.467630000000     0.432250000000    -0.0975237  
C477     C      0.342120000000     0.432170000000     0.420620000000    -0.0361581  
C478     C      0.318630000000     0.419590000000     0.405780000000    -0.0350043  
C479     C      0.361370000000     0.429450000000     0.406780000000    -0.00793808 
C480     C      0.400580000000     0.431610000000     0.426330000000    -0.0974087  
C481     C      0.313860000000     0.404020000000     0.376700000000    -0.00996335 
C482     C      0.274640000000     0.401620000000     0.356840000000    -0.0996342  
C483     C      0.333160000000     0.401400000000     0.362780000000    -0.0349203  
C484     C      0.251000000000     0.388420000000     0.342880000000     0.0761783  
C485     C      0.255150000000     0.353000000000     0.336150000000     0.107067   
C486     C      0.356610000000     0.413930000000     0.377670000000    -0.0360062  
C487     C      0.386430000000     0.443000000000     0.422220000000     0.0510993  
C488     C      0.288810000000     0.390370000000     0.361170000000     0.0558377  
C489     C      0.534760000000     0.021740000000     0.630320000000    -0.106809   
C490     C      0.514720000000     0.977710000000     0.856270000000     0.0770652  
C491     C      0.526100000000     0.019790000000     0.853040000000     0.0775287  
C492     C      0.516530000000     0.976730000000     0.819760000000    -0.098284   
C493     C      0.502770000000     0.979920000000     0.742280000000    -0.0364745  
C494     C      0.502350000000     0.980320000000     0.705550000000    -0.0344464  
C495     C      0.523820000000     0.996780000000     0.760760000000    -0.00829651 
C496     C      0.528670000000     0.019590000000     0.816590000000    -0.0978452  
C497     C      0.523160000000     0.997320000000     0.686440000000    -0.0101308  
C498     C      0.507600000000     0.978200000000     0.626920000000    -0.0993038  
C499     C      0.544570000000     0.013520000000     0.705210000000    -0.0346639  
C500     C      0.505520000000     0.980450000000     0.590750000000     0.0767695  
C501     C      0.532760000000     0.023620000000     0.593800000000     0.107439   
C502     C      0.544780000000     0.013450000000     0.741960000000    -0.036667   
C503     C      0.523380000000     0.997770000000     0.799570000000     0.0513928  
C504     C      0.522120000000     0.998990000000     0.647350000000     0.0553873  
C505     C      0.481910000000     0.013210000000     0.126260000000    -0.107467   
C506     C      0.514710000000     0.025650000000     0.351670000000     0.0774592  
C507     C      0.475120000000     0.990380000000     0.356210000000     0.0766895  
C508     C      0.512860000000     0.025060000000     0.315090000000    -0.0982754  
C509     C      0.510070000000     0.005480000000     0.240930000000    -0.0360938  
C510     C      0.508950000000     0.003240000000     0.204380000000    -0.0351452  
C511     C      0.490460000000     0.004630000000     0.259820000000    -0.00853413 
C512     C      0.472520000000     0.989480000000     0.319630000000    -0.0979814  
C513     C      0.488340000000     0.000440000000     0.185910000000    -0.0100955  
C514     C      0.493110000000     0.981940000000     0.130620000000    -0.100719   
C515     C      0.468770000000     0.999780000000     0.204710000000    -0.0357001  
C516     C      0.493870000000     0.981180000000     0.094080000000     0.077194   
C517     C      0.483020000000     0.012370000000     0.089390000000     0.107592   
C518     C      0.469720000000     0.001620000000     0.241430000000    -0.036118   
C519     C      0.491760000000     0.006620000000     0.298660000000     0.0515363  
C520     C      0.487560000000     0.998370000000     0.147080000000     0.0560573  
C521     C      0.732580000000     0.081130000000     0.091070000000    -0.107037   
C522     C      0.588010000000     0.052540000000     0.003710000000     0.0771442  
C523     C      0.583860000000     0.012990000000     0.007640000000     0.0767956  
C524     C      0.612160000000     0.063340000000     0.015920000000    -0.0972211  
C525     C      0.666610000000     0.082340000000     0.025050000000    -0.0361539  
C526     C      0.690300000000     0.093420000000     0.039140000000    -0.035082   
C527     C      0.647890000000     0.059920000000     0.038540000000    -0.00793086 
C528     C      0.607990000000     0.023200000000     0.019930000000    -0.0973001  
C529     C      0.695900000000     0.082330000000     0.067030000000    -0.00998849 
C530     C      0.733590000000     0.119750000000     0.088670000000    -0.0999704  
C531     C      0.677310000000     0.059720000000     0.080210000000    -0.0351403  
C532     C      0.757400000000     0.131210000000     0.102090000000     0.0764687  
C533     C      0.756620000000     0.092990000000     0.104690000000     0.106529   
C534     C      0.653570000000     0.048660000000     0.066150000000    -0.0359693  
C535     C      0.622430000000     0.048670000000     0.024460000000     0.0507354  
C536     C      0.721020000000     0.094530000000     0.082440000000     0.0557345  
C537     C      0.198840000000     0.837630000000     0.646560000000    -0.108257   
C538     C      0.167860000000     0.852230000000     0.421910000000     0.077452   
C539     C      0.201710000000     0.845440000000     0.420830000000     0.0772319  
C540     C      0.169700000000     0.854910000000     0.458410000000    -0.0968311  
C541     C      0.166490000000     0.843940000000     0.535830000000    -0.0356603  
C542     C      0.167080000000     0.843840000000     0.572520000000    -0.0350158  
C543     C      0.188250000000     0.852580000000     0.516120000000    -0.00776704 
C544     C      0.203720000000     0.847460000000     0.457400000000    -0.0969224  
C545     C      0.189310000000     0.851850000000     0.590410000000    -0.0104754  
C546     C      0.179930000000     0.862690000000     0.649060000000    -0.101402   
C547     C      0.211080000000     0.860440000000     0.571090000000    -0.0354543  
C548     C      0.179110000000     0.860650000000     0.685550000000     0.0779405  
C549     C      0.197450000000     0.835410000000     0.683390000000     0.108174   
C550     C      0.210610000000     0.861060000000     0.534340000000    -0.0358503  
C551     C      0.187410000000     0.851950000000     0.476870000000     0.0506975  
C552     C      0.189560000000     0.850870000000     0.629220000000     0.056901   
C553     C      0.157710000000     0.841140000000     0.963690000000    -0.108265   
C554     C      0.181530000000     0.817490000000     0.182740000000     0.0774902  
C555     C      0.141650000000     0.812620000000     0.186340000000     0.0776288  
C556     C      0.179850000000     0.815850000000     0.146160000000    -0.0983196  
C557     C      0.137630000000     0.795580000000     0.071520000000    -0.036353   
C558     C      0.136780000000     0.797110000000     0.034850000000    -0.0350314  
C559     C      0.157760000000     0.813670000000     0.090470000000    -0.00832783 
C560     C      0.139200000000     0.810480000000     0.149780000000    -0.0976841  
C561     C      0.155780000000     0.817060000000     0.016790000000    -0.0106559  
C562     C      0.152240000000     0.800860000000     0.955820000000    -0.100426   
C563     C      0.175850000000     0.835090000000     0.035790000000    -0.0349233  
C564     C      0.153940000000     0.804630000000     0.919520000000     0.0762162  
C565     C      0.158920000000     0.844490000000     0.927110000000     0.106814   
C566     C      0.176930000000     0.833320000000     0.072230000000    -0.0360584  
C567     C      0.158700000000     0.812740000000     0.129290000000     0.0517125  
C568     C      0.154820000000     0.819490000000     0.978230000000     0.0567445  
C569     C      0.398710000000     0.969850000000     0.928810000000    -0.1071     
C570     C      0.253980000000     0.859860000000     0.835500000000     0.0774761  
C571     C      0.252560000000     0.896810000000     0.838420000000     0.0773369  
C572     C      0.277870000000     0.871770000000     0.848810000000    -0.0973787  
C573     C      0.320870000000     0.897250000000     0.898780000000    -0.0361627  
C574     C      0.344350000000     0.908900000000     0.913630000000    -0.0349675  
C575     C      0.314310000000     0.909300000000     0.873490000000    -0.00780589 
C576     C      0.276470000000     0.909310000000     0.851820000000    -0.0970954  
C577     C      0.361860000000     0.932920000000     0.903590000000    -0.0100805  
C578     C      0.399360000000     0.932130000000     0.924050000000    -0.100032   
C579     C      0.355260000000     0.945060000000     0.878480000000    -0.0348495  
C580     C      0.423110000000     0.943900000000     0.937710000000     0.0765175  
C581     C      0.422620000000     0.981400000000     0.942810000000     0.106689   
C582     C      0.331760000000     0.933390000000     0.863600000000    -0.0360266  
C583     C      0.289320000000     0.896710000000     0.857650000000     0.0510199  
C584     C      0.386980000000     0.945140000000     0.918950000000     0.0559166  
C585     C      0.805610000000     0.645920000000     0.984820000000    -0.106636   
C586     C      0.825880000000     0.688160000000     0.757610000000     0.0769437  
C587     C      0.815700000000     0.646440000000     0.761210000000     0.0774455  
C588     C      0.823610000000     0.689080000000     0.794060000000    -0.0981455  
C589     C      0.836840000000     0.686980000000     0.871840000000    -0.0364959  
C590     C      0.837010000000     0.686900000000     0.908570000000    -0.0345694  
C591     C      0.816380000000     0.669210000000     0.853240000000    -0.00815368 
C592     C      0.812730000000     0.646570000000     0.797590000000    -0.0979559  
C593     C      0.816500000000     0.669300000000     0.927630000000    -0.00994436 
C594     C      0.830850000000     0.689770000000     0.986590000000    -0.0994916  
C595     C      0.795680000000     0.652030000000     0.908740000000    -0.0347284  
C596     C      0.833230000000     0.688420000000     0.022840000000     0.07715    
C597     C      0.807830000000     0.644940000000     0.021500000000     0.106999   
C598     C      0.795750000000     0.651810000000     0.871970000000    -0.0366545  
C599     C      0.817170000000     0.668180000000     0.814420000000     0.0514027  
C600     C      0.817340000000     0.668380000000     0.966860000000     0.0553605  
C601     C      0.866740000000     0.688680000000     0.297480000000    -0.106815   
C602     C      0.848170000000     0.647670000000     0.525030000000     0.0769733  
C603     C      0.858270000000     0.689360000000     0.521180000000     0.0772298  
C604     C      0.850170000000     0.646580000000     0.488570000000    -0.0981139  
C605     C      0.836240000000     0.648290000000     0.411000000000    -0.0364676  
C606     C      0.835780000000     0.648150000000     0.374270000000    -0.0345449  
C607     C      0.856880000000     0.666120000000     0.429240000000    -0.00821721 
C608     C      0.860970000000     0.689060000000     0.484760000000    -0.0981041  
C609     C      0.856180000000     0.665570000000     0.354850000000    -0.00998408 
C610     C      0.841310000000     0.644840000000     0.296130000000    -0.099344   
C611     C      0.877180000000     0.682900000000     0.373380000000    -0.0349116  
C612     C      0.838770000000     0.646050000000     0.259880000000     0.0770529  
C613     C      0.864330000000     0.689520000000     0.260820000000     0.107195   
C614     C      0.877400000000     0.683340000000     0.410150000000    -0.0368178  
C615     C      0.856410000000     0.667360000000     0.468060000000     0.0513247  
C616     C      0.855050000000     0.666310000000     0.315630000000     0.0553137  
C617     C      0.610560000000     0.583650000000     0.518590000000    -0.107299   
C618     C      0.753910000000     0.612980000000     0.611030000000     0.0771487  
C619     C      0.758030000000     0.652450000000     0.605440000000     0.0767697  
C620     C      0.729850000000     0.601980000000     0.598450000000    -0.097585   
C621     C      0.675460000000     0.582880000000     0.587890000000    -0.0362734  
C622     C      0.651920000000     0.571660000000     0.573240000000    -0.0349235  
C623     C      0.694370000000     0.605070000000     0.574070000000    -0.00786705 
C624     C      0.734000000000     0.642030000000     0.592740000000    -0.0972029  
C625     C      0.646700000000     0.582360000000     0.544450000000    -0.0100917  
C626     C      0.608920000000     0.544800000000     0.523290000000    -0.100155   
C627     C      0.665510000000     0.604690000000     0.530870000000    -0.0349176  
C628     C      0.585270000000     0.533380000000     0.509320000000     0.0763889  
C629     C      0.586690000000     0.571840000000     0.504410000000     0.107231   
C630     C      0.689080000000     0.615910000000     0.545500000000    -0.0360147  
C631     C      0.719650000000     0.616510000000     0.588810000000     0.0509853  
C632     C      0.621730000000     0.570130000000     0.528600000000     0.0560148  
C633     C      0.943460000000     0.697780000000     0.686710000000    -0.106065   
C634     C      0.089490000000     0.811490000000     0.772380000000     0.0778225  
C635     C      0.091460000000     0.774810000000     0.769910000000     0.078184   
C636     C      0.065290000000     0.799040000000     0.760120000000    -0.0985111  
C637     C      0.010290000000     0.765100000000     0.751090000000    -0.0223793  
C638     C      0.986500000000     0.752790000000     0.737250000000    -0.0487488  
C639     C      0.028550000000     0.760580000000     0.737910000000    -0.01521    
C640     C      0.067320000000     0.761820000000     0.757590000000    -0.0985824  
C641     C      0.980410000000     0.735660000000     0.709890000000    -0.00274851 
C642     C      0.942580000000     0.735460000000     0.688730000000    -0.0989338  
C643     C      0.998640000000     0.731050000000     0.696810000000    -0.0488167  
C644     C      0.918750000000     0.723170000000     0.675410000000     0.0752379  
C645     C      0.919420000000     0.685660000000     0.673130000000     0.10621    
C646     C      0.022430000000     0.743370000000     0.710650000000    -0.0223516  
C647     C      0.053970000000     0.773940000000     0.752220000000     0.0545249  
C648     C      0.955140000000     0.722780000000     0.694970000000     0.0522725  
H1       H      0.741810000000     0.902530000000     0.772320000000     0.0223742  
H2       H      0.773530000000     0.093870000000     0.668150000000     0.022647   
H3       H      0.765420000000     0.965930000000     0.694580000000     0.0367897  
H4       H      0.751310000000     0.030930000000     0.743870000000     0.0360476  
H5       H      0.752260000000     0.052880000000     0.691120000000     0.0523053  
H6       H      0.730010000000     0.989820000000     0.769360000000     0.0366456  
H7       H      0.817640000000     0.047840000000     0.681090000000     0.0569491  
H8       H      0.764320000000     0.944250000000     0.749950000000     0.0520916  
H9       H      0.697640000000     0.948000000000     0.752310000000     0.0520354  
H10      H      0.786430000000     0.006890000000     0.668650000000     0.0361138  
H11      H      0.675700000000     0.906420000000     0.774810000000     0.0216051  
H12      H      0.839230000000     0.235830000000     0.604050000000     0.0215364  
H13      H      0.997380000000     0.427670000000     0.501070000000     0.0213888  
H14      H      0.885570000000     0.319620000000     0.595010000000     0.0361561  
H15      H      0.950580000000     0.343520000000     0.504760000000     0.0357327  
H16      H      0.977990000000     0.386500000000     0.523400000000     0.0517623  
H17      H      0.931210000000     0.302320000000     0.529800000000     0.036086   
H18      H      0.907220000000     0.380340000000     0.511720000000     0.0573343  
H19      H      0.858260000000     0.277250000000     0.580970000000     0.0516244  
H20      H      0.928640000000     0.280780000000     0.583120000000     0.0512203  
H21      H      0.904750000000     0.360710000000     0.569490000000     0.0367337  
H22      H      0.908950000000     0.239130000000     0.605240000000     0.0213948  
H23      H      0.104540000000     0.760520000000     0.338000000000     0.022552   
H24      H      0.071200000000     0.568320000000     0.438180000000     0.0232891  
H25      H      0.087870000000     0.700730000000     0.418540000000     0.0375761  
H26      H      0.096650000000     0.633470000000     0.365300000000     0.0365488  
H27      H      0.094830000000     0.609630000000     0.416560000000     0.052652   
H28      H      0.118150000000     0.674440000000     0.339080000000     0.0368397  
H29      H      0.033380000000     0.620620000000     0.432630000000     0.058038   
H30      H      0.084370000000     0.719480000000     0.362420000000     0.053162   
H31      H      0.151800000000     0.717660000000     0.352480000000     0.0520342  
H32      H      0.066830000000     0.660070000000     0.445220000000     0.0370324  
H33      H      0.171600000000     0.758900000000     0.327960000000     0.0215345  
H34      H      0.597640000000     0.762160000000     0.832890000000     0.0217977  
H35      H      0.562660000000     0.571080000000     0.942060000000     0.0235878  
H36      H      0.572720000000     0.699410000000     0.911600000000     0.0368109  
H37      H      0.586740000000     0.633620000000     0.865400000000     0.0365876  
H38      H      0.584600000000     0.611910000000     0.918940000000     0.0527189  
H39      H      0.608930000000     0.674610000000     0.839660000000     0.0369968  
H40      H      0.519380000000     0.617540000000     0.924770000000     0.0569701  
H41      H      0.574770000000     0.720670000000     0.855760000000     0.0521097  
H42      H      0.641270000000     0.716540000000     0.856180000000     0.0524616  
H43      H      0.550770000000     0.658540000000     0.937720000000     0.0363828  
H44      H      0.663620000000     0.758000000000     0.833050000000     0.0228163  
H45      H      0.266740000000     0.090670000000     0.161460000000     0.0224728  
H46      H      0.241350000000     0.902630000000     0.268980000000     0.0226803  
H47      H      0.236510000000     0.008150000000     0.168580000000     0.0365104  
H48      H      0.277650000000     0.987620000000     0.263300000000     0.036446   
H49      H      0.263110000000     0.943430000000     0.244840000000     0.0526632  
H50      H      0.298030000000     0.029030000000     0.238730000000     0.0364613  
H51      H      0.198510000000     0.949760000000     0.254080000000     0.0578302  
H52      H      0.247100000000     0.048840000000     0.182590000000     0.0520836  
H53      H      0.317950000000     0.053560000000     0.188680000000     0.0517882  
H54      H      0.215950000000     0.967050000000     0.194020000000     0.0372918  
H55      H      0.337130000000     0.095750000000     0.168700000000     0.021936   
H56      H      0.403130000000     0.241420000000     0.116530000000     0.0216846  
H57      H      0.427450000000     0.428940000000     0.009020000000     0.0238642  
H58      H      0.433680000000     0.324010000000     0.108780000000     0.0362222  
H59      H      0.391790000000     0.344210000000     0.014820000000     0.0369851  
H60      H      0.406160000000     0.388140000000     0.033130000000     0.0533703  
H61      H      0.371540000000     0.302930000000     0.039800000000     0.036785   
H62      H      0.471150000000     0.382570000000     0.022960000000     0.0577545  
H63      H      0.422740000000     0.283150000000     0.095060000000     0.0517315  
H64      H      0.352030000000     0.278820000000     0.090420000000     0.0521083  
H65      H      0.454080000000     0.364990000000     0.082970000000     0.0371455  
H66      H      0.332840000000     0.236700000000     0.110740000000     0.0222604  
H67      H      0.702440000000     0.857920000000     0.411720000000     0.0219515  
H68      H      0.637870000000     0.829860000000     0.695570000000     0.021831   
H69      H      0.661400000000     0.780200000000     0.519510000000     0.0368294  
H70      H      0.670130000000     0.852000000000     0.586190000000     0.0368484  
H71      H      0.637510000000     0.828180000000     0.632300000000     0.0531415  
H72      H      0.673130000000     0.854020000000     0.522150000000     0.0371158  
H73      H      0.686160000000     0.798720000000     0.634800000000     0.0576945  
H74      H      0.701750000000     0.854680000000     0.475310000000     0.0524011  
H75      H      0.637220000000     0.782920000000     0.468330000000     0.0525275  
H76      H      0.658170000000     0.778090000000     0.583730000000     0.0366583  
H77      H      0.638330000000     0.786660000000     0.404780000000     0.0222194  
H78      H      0.630870000000     0.806200000000     0.193620000000     0.0219803  
H79      H      0.645150000000     0.853060000000     0.903750000000     0.0226972  
H80      H      0.665300000000     0.813190000000     0.085510000000     0.0376845  
H81      H      0.670000000000     0.883900000000     0.020300000000     0.0366039  
H82      H      0.642530000000     0.855600000000     0.966580000000     0.05301    
H83      H      0.665590000000     0.882050000000     0.084630000000     0.036901   
H84      H      0.705460000000     0.846850000000     0.979580000000     0.0582164  
H85      H      0.631680000000     0.809450000000     0.130000000000     0.0527267  
H86      H      0.693780000000     0.882730000000     0.137280000000     0.0529469  
H87      H      0.670080000000     0.815240000000     0.021600000000     0.0377129  
H88      H      0.692850000000     0.878880000000     0.200940000000     0.0221367  
H89      H      0.831330000000     0.736650000000     0.164370000000     0.0220933  
H90      H      0.671240000000     0.764540000000     0.275010000000     0.0231562  
H91      H      0.792390000000     0.759270000000     0.244280000000     0.0369833  
H92      H      0.709680000000     0.738550000000     0.201300000000     0.036197   
H93      H      0.690860000000     0.742720000000     0.253950000000     0.0525058  
H94      H      0.729850000000     0.717280000000     0.176740000000     0.0368569  
H95      H      0.760480000000     0.809470000000     0.253780000000     0.0569269  
H96      H      0.810420000000     0.757400000000     0.186730000000     0.0521806  
H97      H      0.743500000000     0.687640000000     0.195150000000     0.0523636  
H98      H      0.772120000000     0.780170000000     0.269400000000     0.0362666  
H99      H      0.764920000000     0.667320000000     0.172570000000     0.022229   
H100     H      0.506180000000     0.933150000000     0.447470000000     0.0215699  
H101     H      0.661910000000     0.899970000000     0.332920000000     0.0231277  
H102     H      0.543060000000     0.908220000000     0.367550000000     0.036695   
H103     H      0.624120000000     0.923700000000     0.410600000000     0.036136   
H104     H      0.642790000000     0.921560000000     0.356380000000     0.0525498  
H105     H      0.605350000000     0.945700000000     0.437090000000     0.036658   
H106     H      0.572520000000     0.855650000000     0.352690000000     0.0570297  
H107     H      0.524950000000     0.910450000000     0.424540000000     0.051999   
H108     H      0.594810000000     0.977580000000     0.420490000000     0.0520415  
H109     H      0.561950000000     0.886490000000     0.340600000000     0.0361714  
H110     H      0.575550000000     0.999820000000     0.443670000000     0.0218651  
H111     H      0.964460000000     0.477990000000     0.863190000000     0.0222822  
H112     H      0.981660000000     0.523750000000     0.572670000000     0.0223877  
H113     H      0.994770000000     0.478840000000     0.755010000000     0.0436407  
H114     H      0.010530000000     0.553060000000     0.687730000000     0.0351225  
H115     H      0.980680000000     0.527590000000     0.635570000000     0.0544191  
H116     H      0.006930000000     0.552810000000     0.752080000000     0.0418748  
H117     H      0.033890000000     0.504370000000     0.647380000000     0.0602779  
H118     H      0.964780000000     0.480690000000     0.799600000000     0.0494105  
H119     H      0.032350000000     0.550030000000     0.804690000000     0.0497696  
H120     H      0.998520000000     0.479160000000     0.691100000000     0.0256925  
H121     H      0.031730000000     0.546770000000     0.868400000000     0.0227455  
H122     H      0.040320000000     0.525180000000     0.079060000000     0.0220555  
H123     H      0.021230000000     0.475980000000     0.368800000000     0.0226848  
H124     H      0.008850000000     0.522620000000     0.187400000000     0.0401559  
H125     H      0.994100000000     0.448100000000     0.252940000000     0.0338382  
H126     H      0.022960000000     0.473140000000     0.305870000000     0.0537015  
H127     H      0.998500000000     0.449310000000     0.188700000000     0.0377875  
H128     H      0.968600000000     0.494850000000     0.294150000000     0.0571435  
H129     H      0.039600000000     0.522090000000     0.142690000000     0.0533924  
H130     H      0.973060000000     0.451920000000     0.136270000000     0.0529548  
H131     H      0.004270000000     0.521320000000     0.251260000000     0.0370267  
H132     H      0.974050000000     0.455570000000     0.072650000000     0.0214175  
H133     H      0.906510000000     0.667070000000     0.106820000000     0.0217316  
H134     H      0.936100000000     0.505210000000     0.008000000000     0.0224787  
H135     H      0.944030000000     0.620250000000     0.099820000000     0.035886   
H136     H      0.898210000000     0.551120000000     0.016930000000     0.0360904  
H137     H      0.915200000000     0.524890000000     0.032680000000     0.0521492  
H138     H      0.877620000000     0.571340000000     0.043300000000     0.0366886  
H139     H      0.978850000000     0.595540000000     0.015360000000     0.055006   
H140     H      0.927750000000     0.646780000000     0.083860000000     0.0515244  
H141     H      0.862190000000     0.576610000000     0.099150000000     0.0518502  
H142     H      0.964650000000     0.600050000000     0.073340000000     0.0357595  
H143     H      0.841320000000     0.597440000000     0.121320000000     0.022192   
H144     H      0.370850000000     0.153670000000     0.041150000000     0.0217198  
H145     H      0.323950000000     0.128760000000     0.738700000000     0.0225373  
H146     H      0.382760000000     0.175150000000     0.927130000000     0.0365773  
H147     H      0.308490000000     0.130650000000     0.852660000000     0.0360183  
H148     H      0.323060000000     0.121400000000     0.800660000000     0.0523368  
H149     H      0.304510000000     0.126450000000     0.916150000000     0.0362074  
H150     H      0.377560000000     0.196920000000     0.817440000000     0.0574341  
H151     H      0.374170000000     0.150470000000     0.978130000000     0.0518253  
H152     H      0.305950000000     0.150500000000     0.964530000000     0.0520951  
H153     H      0.386970000000     0.177970000000     0.863520000000     0.036441   
H154     H      0.302740000000     0.152720000000     0.027460000000     0.0220804  
H155     H      0.300750000000     0.153540000000     0.535820000000     0.0214351  
H156     H      0.372180000000     0.195770000000     0.245310000000     0.0215913  
H157     H      0.311540000000     0.146300000000     0.422240000000     0.0363356  
H158     H      0.357250000000     0.224310000000     0.355750000000     0.0369548  
H159     H      0.372940000000     0.200820000000     0.308380000000     0.0535774  
H160     H      0.357140000000     0.225520000000     0.419990000000     0.0359046  
H161     H      0.294430000000     0.166370000000     0.309880000000     0.0583602  
H162     H      0.297920000000     0.155560000000     0.472750000000     0.0515694  
H163     H      0.372000000000     0.217200000000     0.470620000000     0.0515569  
H164     H      0.310550000000     0.145620000000     0.358360000000     0.037808   
H165     H      0.373490000000     0.215590000000     0.533980000000     0.0222077  
H166     H      0.507420000000     0.077380000000     0.498140000000     0.0222879  
H167     H      0.349020000000     0.108800000000     0.607340000000     0.0229415  
H168     H      0.469040000000     0.101720000000     0.576950000000     0.0371595  
H169     H      0.388380000000     0.085620000000     0.531110000000     0.0362616  
H170     H      0.368620000000     0.087480000000     0.584300000000     0.0524895  
H171     H      0.407950000000     0.064110000000     0.505470000000     0.0366607  
H172     H      0.438730000000     0.153450000000     0.590540000000     0.0570934  
H173     H      0.488130000000     0.099880000000     0.520200000000     0.0523667  
H174     H      0.418560000000     0.032410000000     0.523610000000     0.0522742  
H175     H      0.449320000000     0.122890000000     0.603130000000     0.0364873  
H176     H      0.438290000000     0.010420000000     0.501440000000     0.021783   
H177     H      0.001660000000     0.430000000000     0.938660000000     0.0232811  
H178     H      0.161190000000     0.398120000000     0.836590000000     0.0230033  
H179     H      0.048250000000     0.392410000000     0.930850000000     0.0374939  
H180     H      0.114100000000     0.434730000000     0.842080000000     0.0363794  
H181     H      0.141360000000     0.419320000000     0.859340000000     0.0526483  
H182     H      0.094550000000     0.456230000000     0.867620000000     0.0368378  
H183     H      0.071090000000     0.354070000000     0.848490000000     0.0580985  
H184     H      0.021010000000     0.407920000000     0.915510000000     0.0530145  
H185     H      0.091560000000     0.474130000000     0.922540000000     0.0520029  
H186     H      0.067770000000     0.370880000000     0.905150000000     0.0377623  
H187     H      0.071610000000     0.495820000000     0.944970000000     0.021939   
H188     H      0.338550000000     0.243740000000     0.671500000000     0.0225983  
H189     H      0.171990000000     0.264650000000     0.772670000000     0.0233164  
H190     H      0.287220000000     0.275430000000     0.679120000000     0.036668   
H191     H      0.221290000000     0.229470000000     0.766530000000     0.0365801  
H192     H      0.192660000000     0.244360000000     0.749020000000     0.0531183  
H193     H      0.243050000000     0.210150000000     0.740970000000     0.0366766  
H194     H      0.262340000000     0.309530000000     0.764680000000     0.057788   
H195     H      0.316270000000     0.262930000000     0.694190000000     0.0523386  
H196     H      0.248890000000     0.193320000000     0.687680000000     0.0519295  
H197     H      0.265720000000     0.294820000000     0.705210000000     0.0370633  
H198     H      0.271850000000     0.174510000000     0.666000000000     0.021799   
H199     H      0.498580000000     0.465070000000     0.575840000000     0.0214765  
H200     H      0.461920000000     0.499320000000     0.869460000000     0.0223436  
H201     H      0.521210000000     0.491350000000     0.691330000000     0.0376118  
H202     H      0.446020000000     0.475520000000     0.755540000000     0.0357099  
H203     H      0.460050000000     0.497990000000     0.806570000000     0.052444   
H204     H      0.447190000000     0.478770000000     0.691530000000     0.0371817  
H205     H      0.506030000000     0.465280000000     0.804620000000     0.0568858  
H206     H      0.494760000000     0.459430000000     0.639170000000     0.0526362  
H207     H      0.475990000000     0.516490000000     0.646860000000     0.0530369  
H208     H      0.520920000000     0.489750000000     0.755290000000     0.036426   
H209     H      0.480560000000     0.522260000000     0.583470000000     0.0218993  
H210     H      0.517120000000     0.554770000000     0.374400000000     0.0220485  
H211     H      0.542240000000     0.527010000000     0.073610000000     0.0229343  
H212     H      0.496130000000     0.543050000000     0.260270000000     0.0364594  
H213     H      0.541090000000     0.512230000000     0.188890000000     0.0360094  
H214     H      0.549820000000     0.534570000000     0.135420000000     0.0523164  
H215     H      0.545450000000     0.513950000000     0.252460000000     0.0361059  
H216     H      0.474190000000     0.513330000000     0.152030000000     0.057297   
H217     H      0.520590000000     0.560220000000     0.311140000000     0.0516386  
H218     H      0.521620000000     0.492280000000     0.301470000000     0.0518361  
H219     H      0.493140000000     0.542940000000     0.196550000000     0.0363378  
H220     H      0.519110000000     0.487930000000     0.364560000000     0.0218333  
H221     H      0.885140000000     0.185420000000     0.737370000000     0.0216501  
H222     H      0.842800000000     0.135870000000     0.021350000000     0.0227219  
H223     H      0.887650000000     0.215660000000     0.852220000000     0.0363472  
H224     H      0.816860000000     0.148030000000     0.914810000000     0.0370477  
H225     H      0.844080000000     0.140300000000     0.958470000000     0.0535798  
H226     H      0.816000000000     0.150420000000     0.850770000000     0.0371526  
H227     H      0.863540000000     0.215840000000     0.969260000000     0.0574972  
H228     H      0.887730000000     0.188680000000     0.801060000000     0.0521664  
H229     H      0.814880000000     0.179130000000     0.804030000000     0.0521898  
H230     H      0.888450000000     0.213290000000     0.916600000000     0.0364357  
H231     H      0.812850000000     0.176140000000     0.740440000000     0.02152    
H232     H      0.862730000000     0.143570000000     0.529370000000     0.0215775  
H233     H      0.810520000000     0.164080000000     0.240520000000     0.0221176  
H234     H      0.866580000000     0.157450000000     0.414010000000     0.0359599  
H235     H      0.786380000000     0.122760000000     0.352660000000     0.0368726  
H236     H      0.807470000000     0.160600000000     0.303810000000     0.053686   
H237     H      0.787310000000     0.123330000000     0.416870000000     0.0357643  
H238     H      0.843410000000     0.117870000000     0.303010000000     0.0579508  
H239     H      0.859290000000     0.136880000000     0.466580000000     0.0512439  
H240     H      0.797060000000     0.148510000000     0.465250000000     0.0513171  
H241     H      0.865140000000     0.155250000000     0.350150000000     0.0375236  
H242     H      0.800110000000     0.153480000000     0.528240000000     0.0215882  
H243     H      0.192010000000     0.368520000000     0.697390000000     0.0221961  
H244     H      0.167380000000     0.300100000000     0.414860000000     0.0226799  
H245     H      0.116910000000     0.326300000000     0.586890000000     0.0374434  
H246     H      0.190090000000     0.335810000000     0.523200000000     0.037205   
H247     H      0.165330000000     0.301140000000     0.478040000000     0.0538685  
H248     H      0.191130000000     0.339110000000     0.587290000000     0.0374989  
H249     H      0.138720000000     0.351990000000     0.471050000000     0.0581195  
H250     H      0.189760000000     0.368120000000     0.633650000000     0.0526665  
H251     H      0.119900000000     0.301110000000     0.638320000000     0.0530857  
H252     H      0.115910000000     0.323100000000     0.522580000000     0.0372308  
H253     H      0.122710000000     0.301800000000     0.702010000000     0.0226808  
H254     H      0.189490000000     0.300310000000     0.204790000000     0.0223172  
H255     H      0.213080000000     0.355840000000     0.904910000000     0.0227999  
H256     H      0.169700000000     0.291560000000     0.090730000000     0.0367854  
H257     H      0.210670000000     0.368370000000     0.020770000000     0.0361189  
H258     H      0.220820000000     0.356370000000     0.966840000000     0.0525016  
H259     H      0.214770000000     0.370580000000     0.084430000000     0.0362421  
H260     H      0.146500000000     0.298710000000     0.983220000000     0.0577787  
H261     H      0.194160000000     0.299770000000     0.141630000000     0.0518661  
H262     H      0.190040000000     0.366180000000     0.133440000000     0.052182   
H263     H      0.167060000000     0.289240000000     0.027020000000     0.0367009  
H264     H      0.186430000000     0.366690000000     0.196530000000     0.0221556  
H265     H      0.099930000000     0.328050000000     0.270540000000     0.022544   
H266     H      0.912490000000     0.164640000000     0.163350000000     0.0230612  
H267     H      0.016030000000     0.278920000000     0.261250000000     0.0351083  
H268     H      0.995900000000     0.213640000000     0.172660000000     0.0379153  
H269     H      0.953290000000     0.185300000000     0.187280000000     0.051571   
H270     H      0.036570000000     0.234310000000     0.199490000000     0.0347693  
H271     H      0.955810000000     0.254590000000     0.177600000000     0.056369   
H272     H      0.058740000000     0.307390000000     0.246390000000     0.0533826  
H273     H      0.056970000000     0.238070000000     0.255530000000     0.0531942  
H274     H      0.975330000000     0.258210000000     0.234430000000     0.0389381  
H275     H      0.098320000000     0.259300000000     0.279050000000     0.0223104  
H276     H      0.434870000000     0.435430000000     0.441770000000     0.0217502  
H277     H      0.240830000000     0.398130000000     0.340840000000     0.0230969  
H278     H      0.371130000000     0.411780000000     0.365970000000     0.0369746  
H279     H      0.304110000000     0.421750000000     0.417450000000     0.0362964  
H280     H      0.281770000000     0.420650000000     0.364140000000     0.0525674  
H281     H      0.345110000000     0.443770000000     0.443280000000     0.0363777  
H282     H      0.289810000000     0.357030000000     0.353360000000     0.0572897  
H283     H      0.393230000000     0.412470000000     0.419470000000     0.0520507  
H284     H      0.386440000000     0.477210000000     0.429300000000     0.0518753  
H285     H      0.330240000000     0.389910000000     0.340030000000     0.0367433  
H286     H      0.427980000000     0.499590000000     0.451970000000     0.0218196  
H287     H      0.529820000000     0.036930000000     0.865140000000     0.022017   
H288     H      0.494020000000     0.963650000000     0.576310000000     0.0212873  
H289     H      0.561300000000     0.026480000000     0.755740000000     0.037021   
H290     H      0.485370000000     0.967820000000     0.692300000000     0.0358424  
H291     H      0.497800000000     0.960110000000     0.638670000000     0.0519384  
H292     H      0.486300000000     0.967030000000     0.756300000000     0.0375687  
H293     H      0.545430000000     0.038270000000     0.645750000000     0.0567434  
H294     H      0.533950000000     0.036200000000     0.801690000000     0.0530133  
H295     H      0.512440000000     0.959570000000     0.807370000000     0.0522905  
H296     H      0.561180000000     0.026460000000     0.691590000000     0.0357915  
H297     H      0.509080000000     0.960920000000     0.870920000000     0.0212867  
H298     H      0.460070000000     0.976390000000     0.371490000000     0.0213598  
H299     H      0.498960000000     0.968480000000     0.082870000000     0.021839   
H300     H      0.454400000000     0.000970000000     0.255420000000     0.0366442  
H301     H      0.524350000000     0.003980000000     0.190480000000     0.0371145  
H302     H      0.497140000000     0.969830000000     0.145970000000     0.053058   
H303     H      0.526170000000     0.007560000000     0.254500000000     0.0372687  
H304     H      0.477010000000     0.025670000000     0.138890000000     0.0577382  
H305     H      0.455920000000     0.974930000000     0.307810000000     0.0520871  
H306     H      0.527990000000     0.038840000000     0.299700000000     0.0525951  
H307     H      0.452640000000     0.997530000000     0.191040000000     0.0367655  
H308     H      0.531560000000     0.040050000000     0.363200000000     0.0219083  
H309     H      0.573320000000     0.993190000000     0.004750000000     0.0213619  
H310     H      0.766220000000     0.150940000000     0.105590000000     0.0231939  
H311     H      0.639520000000     0.031560000000     0.077510000000     0.036461   
H312     H      0.704320000000     0.110620000000     0.027980000000     0.0363903  
H313     H      0.725090000000     0.130750000000     0.083170000000     0.0526663  
H314     H      0.663010000000     0.091310000000     0.003390000000     0.0362913  
H315     H      0.722860000000     0.061400000000     0.086830000000     0.0570873  
H316     H      0.615280000000     0.011180000000     0.025690000000     0.0516793  
H317     H      0.622510000000     0.083080000000     0.019390000000     0.0518433  
H318     H      0.680950000000     0.050850000000     0.101950000000     0.0365698  
H319     H      0.580810000000     0.064640000000     0.997860000000     0.0222372  
H320     H      0.214430000000     0.841470000000     0.407040000000     0.0215295  
H321     H      0.170890000000     0.869800000000     0.699530000000     0.0217952  
H322     H      0.227830000000     0.868310000000     0.520320000000     0.0357553  
H323     H      0.150020000000     0.836910000000     0.586960000000     0.037695   
H324     H      0.172860000000     0.873340000000     0.636370000000     0.0537866  
H325     H      0.148830000000     0.836700000000     0.523020000000     0.0365792  
H326     H      0.206840000000     0.828820000000     0.631190000000     0.0582579  
H327     H      0.217520000000     0.844670000000     0.470230000000     0.0513463  
H328     H      0.157130000000     0.859150000000     0.471980000000     0.0517344  
H329     H      0.228470000000     0.866900000000     0.584450000000     0.0370162  
H330     H      0.153590000000     0.854210000000     0.408860000000     0.0222166  
H331     H      0.126410000000     0.811490000000     0.201230000000     0.0224573  
H332     H      0.152350000000     0.789640000000     0.903480000000     0.022941   
H333     H      0.192540000000     0.847610000000     0.086270000000     0.0377154  
H334     H      0.121110000000     0.783030000000     0.020670000000     0.0372242  
H335     H      0.149810000000     0.783740000000     0.966300000000     0.0533605  
H336     H      0.122660000000     0.780250000000     0.085060000000     0.0373526  
H337     H      0.159230000000     0.855510000000     0.981180000000     0.0583826  
H338     H      0.122560000000     0.808100000000     0.137560000000     0.0532256  
H339     H      0.195210000000     0.817420000000     0.131100000000     0.0525199  
H340     H      0.190780000000     0.850560000000     0.022370000000     0.0377931  
H341     H      0.198450000000     0.820370000000     0.194660000000     0.0216091  
H342     H      0.243130000000     0.907170000000     0.834950000000     0.0223505  
H343     H      0.431880000000     0.932840000000     0.940110000000     0.0222656  
H344     H      0.327400000000     0.943090000000     0.843890000000     0.0367486  
H345     H      0.348690000000     0.899180000000     0.933320000000     0.0360515  
H346     H      0.391000000000     0.912960000000     0.916690000000     0.0522398  
H347     H      0.307740000000     0.878870000000     0.907510000000     0.03654    
H348     H      0.388910000000     0.979940000000     0.926240000000     0.0574732  
H349     H      0.284550000000     0.928570000000     0.858450000000     0.0522449  
H350     H      0.287300000000     0.861420000000     0.852180000000     0.0518367  
H351     H      0.368430000000     0.963450000000     0.869820000000     0.0369632  
H352     H      0.245810000000     0.840480000000     0.829420000000     0.022358   
H353     H      0.812620000000     0.629460000000     0.749300000000     0.0219278  
H354     H      0.844060000000     0.705690000000     0.036600000000     0.0213234  
H355     H      0.779670000000     0.638040000000     0.858120000000     0.0371041  
H356     H      0.853590000000     0.700200000000     0.921900000000     0.0355636  
H357     H      0.839760000000     0.707680000000     0.974180000000     0.0517771  
H358     H      0.853090000000     0.700410000000     0.857930000000     0.0370984  
H359     H      0.795530000000     0.628980000000     0.970030000000     0.0566786  
H360     H      0.807800000000     0.630080000000     0.812590000000     0.0528884  
H361     H      0.827050000000     0.706090000000     0.806260000000     0.0521619  
H362     H      0.779310000000     0.638540000000     0.922290000000     0.035893   
H363     H      0.831170000000     0.704840000000     0.742840000000     0.0211931  
H364     H      0.861400000000     0.706390000000     0.533010000000     0.0213446  
H365     H      0.827800000000     0.628740000000     0.246290000000     0.0214821  
H366     H      0.893610000000     0.697150000000     0.423710000000     0.036584   
H367     H      0.819080000000     0.634820000000     0.361240000000     0.0359582  
H368     H      0.832390000000     0.626990000000     0.308710000000     0.0519939  
H369     H      0.820080000000     0.634990000000     0.425200000000     0.0375357  
H370     H      0.876940000000     0.705680000000     0.312110000000     0.0563529  
H371     H      0.865770000000     0.705470000000     0.469630000000     0.0524807  
H372     H      0.846660000000     0.629520000000     0.476470000000     0.052486   
H373     H      0.893470000000     0.696250000000     0.359540000000     0.0353799  
H374     H      0.843010000000     0.631070000000     0.539920000000     0.0219053  
H375     H      0.768540000000     0.672280000000     0.607790000000     0.0218335  
H376     H      0.576210000000     0.513580000000     0.506570000000     0.0223451  
H377     H      0.703300000000     0.632800000000     0.533880000000     0.0367913  
H378     H      0.637730000000     0.554680000000     0.584690000000     0.0362032  
H379     H      0.617130000000     0.533700000000     0.529910000000     0.052354   
H380     H      0.678790000000     0.574240000000     0.610230000000     0.0363446  
H381     H      0.620460000000     0.603440000000     0.522140000000     0.0573819  
H382     H      0.726720000000     0.653940000000     0.586130000000     0.0520022  
H383     H      0.719540000000     0.582200000000     0.595520000000     0.0516853  
H384     H      0.662170000000     0.613250000000     0.508430000000     0.0366401  
H385     H      0.761110000000     0.600990000000     0.617690000000     0.0217495  
H386     H      0.101110000000     0.764680000000     0.773420000000     0.0223989  
H387     H      0.910000000000     0.734150000000     0.671740000000     0.0223513  
H388     H      0.036160000000     0.739740000000     0.699500000000     0.0348248  
H389     H      0.972780000000     0.756480000000     0.748290000000     0.0380047  
H390     H      0.951140000000     0.754970000000     0.694020000000     0.0509461  
H391     H      0.014290000000     0.777970000000     0.772420000000     0.0348035  
H392     H      0.953100000000     0.687700000000     0.691180000000     0.05617    
H393     H      0.059160000000     0.742340000000     0.752400000000     0.0533058  
H394     H      0.055740000000     0.809200000000     0.756080000000     0.0528967  
H395     H      0.994660000000     0.718260000000     0.675380000000     0.0381591  
H396     H      0.097620000000     0.830970000000     0.777680000000     0.0220967  
N1       N      0.808370000000     0.095510000000     0.660920000000    -0.209224   
N2       N      0.707050000000     0.901270000000     0.774950000000    -0.208382   
N3       N      0.964000000000     0.429010000000     0.493900000000    -0.208262   
N4       N      0.872590000000     0.234260000000     0.605980000000    -0.208506   
N5       N      0.038150000000     0.569730000000     0.448150000000    -0.208847   
N6       N      0.139670000000     0.762930000000     0.331590000000    -0.208431   
N7       N      0.527760000000     0.569630000000     0.947200000000    -0.208779   
N8       N      0.632380000000     0.763280000000     0.831580000000    -0.208316   
N9       N      0.206690000000     0.901510000000     0.275280000000    -0.208929   
N10      N      0.303410000000     0.096440000000     0.163840000000    -0.208381   
N11      N      0.462270000000     0.430450000000     0.002280000000    -0.208818   
N12      N      0.366490000000     0.235820000000     0.114870000000    -0.208437   
N13      N      0.662850000000     0.816100000000     0.702710000000    -0.21034    
N14      N      0.670220000000     0.822720000000     0.403540000000    -0.208621   
N15      N      0.676490000000     0.847670000000     0.904030000000    -0.209257   
N16      N      0.662090000000     0.842110000000     0.201970000000    -0.208589   
N17      N      0.704030000000     0.800160000000     0.277060000000    -0.208946   
N18      N      0.799780000000     0.700400000000     0.167180000000    -0.208484   
N19      N      0.628800000000     0.864700000000     0.328980000000    -0.209175   
N20      N      0.539390000000     0.968230000000     0.446860000000    -0.208585   
N21      N      0.008010000000     0.511290000000     0.572530000000    -0.208462   
N22      N      0.998360000000     0.511900000000     0.870470000000    -0.209781   
N23      N      0.994280000000     0.487680000000     0.369060000000    -0.21189    
N24      N      0.006960000000     0.490870000000     0.071190000000    -0.207043   
N25      N      0.970240000000     0.538530000000     0.997950000000    -0.207702   
N26      N      0.872250000000     0.633820000000     0.115360000000    -0.208248   
N27      N      0.351210000000     0.167210000000     0.740910000000    -0.209168   
N28      N      0.336740000000     0.153760000000     0.039000000000    -0.208524   
N29      N      0.332860000000     0.178040000000     0.240180000000    -0.20989    
N30      N      0.337450000000     0.184140000000     0.539540000000    -0.208646   
N31      N      0.382050000000     0.143980000000     0.612690000000    -0.209055   
N32      N      0.474370000000     0.042190000000     0.498500000000    -0.208666   
N33      N      0.128140000000     0.363120000000     0.829850000000    -0.209048   
N34      N      0.035130000000     0.464620000000     0.943170000000    -0.20814    
N35      N      0.204750000000     0.299470000000     0.781770000000    -0.209462   
N36      N      0.306930000000     0.207650000000     0.667390000000    -0.208498   
N37      N      0.486240000000     0.484630000000     0.874320000000    -0.2101     
N38      N      0.490150000000     0.494290000000     0.574980000000    -0.208423   
N39      N      0.503770000000     0.515770000000     0.075760000000    -0.209053   
N40      N      0.517490000000     0.520780000000     0.374200000000    -0.208371   
N41      N      0.851690000000     0.172990000000     0.032840000000    -0.209966   
N42      N      0.848650000000     0.180080000000     0.734200000000    -0.208589   
N43      N      0.828910000000     0.143180000000     0.234180000000    -0.209788   
N44      N      0.831870000000     0.149290000000     0.533440000000    -0.20861    
N45      N      0.155110000000     0.326070000000     0.405450000000    -0.210322   
N46      N      0.157740000000     0.334990000000     0.704420000000    -0.208324   
N47      N      0.175330000000     0.326810000000     0.907030000000    -0.2093     
N48      N      0.187190000000     0.333290000000     0.205330000000    -0.208423   
N49      N      0.909410000000     0.197100000000     0.157350000000    -0.209203   
N50      N      0.102340000000     0.295290000000     0.276220000000    -0.208377   
N51      N      0.240770000000     0.364100000000     0.333320000000    -0.209275   
N52      N      0.434660000000     0.469300000000     0.448170000000    -0.208275   
N53      N      0.517940000000     0.002780000000     0.573930000000    -0.209821   
N54      N      0.518860000000     0.998920000000     0.872700000000    -0.208463   
N55      N      0.489930000000     0.996860000000     0.073320000000    -0.209933   
N56      N      0.496270000000     0.008050000000     0.372070000000    -0.208381   
N57      N      0.769430000000     0.118390000000     0.109180000000    -0.209132   
N58      N      0.573850000000     0.027520000000     0.999930000000    -0.208111   
N59      N      0.186850000000     0.846450000000     0.702840000000    -0.210312   
N60      N      0.183500000000     0.847140000000     0.403300000000    -0.208504   
N61      N      0.157920000000     0.826390000000     0.904790000000    -0.208929   
N62      N      0.162880000000     0.816660000000     0.202630000000    -0.208586   
N63      N      0.435220000000     0.968490000000     0.946280000000    -0.209252   
N64      N      0.241230000000     0.872170000000     0.830870000000    -0.208223   
N65      N      0.822080000000     0.666370000000     0.040540000000    -0.209657   
N66      N      0.822540000000     0.667170000000     0.741410000000    -0.208277   
N67      N      0.849970000000     0.668020000000     0.241980000000    -0.209789   
N68      N      0.851570000000     0.668730000000     0.541130000000    -0.208226   
N69      N      0.573640000000     0.546380000000     0.500780000000    -0.209217   
N70      N      0.768040000000     0.638050000000     0.614100000000    -0.208209   
N71      N      0.906700000000     0.698340000000     0.668270000000    -0.20885    
N72      N      0.102600000000     0.799540000000     0.776850000000    -0.208503   
O1       O      0.827070000000     0.648620000000     0.692090000000    -0.556403   
O2       O      0.842880000000     0.650070000000     0.595450000000    -0.556335   
O3       O      0.868880000000     0.664030000000     0.655870000000    -0.552129   
O4       O      0.801380000000     0.634880000000     0.631770000000    -0.557798   
O5       O      0.805450000000     0.672100000000     0.626680000000    -0.555813   
O6       O      0.872930000000     0.701100000000     0.650800000000    -0.557892   
O7       O      0.847230000000     0.687410000000     0.590460000000    -0.556339   
O8       O      0.831430000000     0.685960000000     0.687150000000    -0.556445   
O9       O      0.178910000000     0.858550000000     0.756030000000    -0.559173   
O10      O      0.163440000000     0.848150000000     0.853040000000    -0.555927   
O11      O      0.205140000000     0.871180000000     0.816220000000    -0.554994   
O12      O      0.137230000000     0.835510000000     0.792940000000    -0.555862   
O13      O      0.138990000000     0.800970000000     0.790350000000    -0.557136   
O14      O      0.206530000000     0.836420000000     0.814730000000    -0.557269   
O15      O      0.164490000000     0.813370000000     0.851080000000    -0.555004   
O16      O      0.181150000000     0.824320000000     0.754080000000    -0.551524   
O17      O      0.495040000000     0.978780000000     0.023730000000    -0.557379   
O18      O      0.509930000000     0.980010000000     0.926810000000    -0.557294   
O19      O      0.536370000000     0.993690000000     0.986880000000    -0.555772   
O20      O      0.468720000000     0.965220000000     0.963740000000    -0.556191   
O21      O      0.473250000000     0.002460000000     0.958140000000    -0.553006   
O22      O      0.540520000000     0.031000000000     0.983080000000    -0.557393   
O23      O      0.515180000000     0.017730000000     0.922360000000    -0.556397   
O24      O      0.498580000000     0.015700000000     0.018780000000    -0.552205   
O25      O      0.162330000000     0.309730000000     0.355600000000    -0.556332   
O26      O      0.179480000000     0.313900000000     0.259060000000    -0.556044   
O27      O      0.204540000000     0.328460000000     0.319880000000    -0.554831   
O28      O      0.137120000000     0.295030000000     0.294640000000    -0.557543   
O29      O      0.138010000000     0.330860000000     0.290290000000    -0.555454   
O30      O      0.205450000000     0.364190000000     0.316260000000    -0.555289   
O31      O      0.180460000000     0.349790000000     0.255170000000    -0.558135   
O32      O      0.162820000000     0.345280000000     0.351350000000    -0.554654   
O33      O      0.830470000000     0.165930000000     0.185600000000    -0.555428   
O34      O      0.844210000000     0.182110000000     0.088860000000    -0.552249   
O35      O      0.803360000000     0.154770000000     0.126450000000    -0.557292   
O36      O      0.871220000000     0.193260000000     0.147900000000    -0.553012   
O37      O      0.875710000000     0.160710000000     0.139510000000    -0.555612   
O38      O      0.807520000000     0.121950000000     0.119450000000    -0.551815   
O39      O      0.847880000000     0.149020000000     0.081000000000    -0.558103   
O40      O      0.835510000000     0.133650000000     0.177920000000    -0.554444   
O41      O      0.509930000000     0.531530000000     0.428740000000    -0.55457    
O42      O      0.494270000000     0.517290000000     0.525600000000    -0.554543   
O43      O      0.535950000000     0.543270000000     0.488960000000    -0.55244    
O44      O      0.468330000000     0.505630000000     0.465380000000    -0.556848   
O45      O      0.471850000000     0.472130000000     0.460830000000    -0.556782   
O46      O      0.539660000000     0.510060000000     0.483390000000    -0.557377   
O47      O      0.498510000000     0.484240000000     0.520600000000    -0.558955   
O48      O      0.513090000000     0.497870000000     0.423670000000    -0.559048   
O49      O      0.153980000000     0.310470000000     0.855140000000    -0.554142   
O50      O      0.144440000000     0.315270000000     0.757600000000    -0.557501   
O51      O      0.168000000000     0.297530000000     0.795800000000    -0.556026   
O52      O      0.130630000000     0.328300000000     0.816970000000    -0.552287   
O53      O      0.164630000000     0.364770000000     0.815250000000    -0.557987   
O54      O      0.201980000000     0.334040000000     0.794540000000    -0.555237   
O55      O      0.178730000000     0.351750000000     0.755960000000    -0.556521   
O56      O      0.188000000000     0.346960000000     0.853750000000    -0.556198   
O57      O      0.365320000000     0.189650000000     0.689180000000    -0.55331    
O58      O      0.358050000000     0.198400000000     0.591990000000    -0.556785   
O59      O      0.343350000000     0.209600000000     0.652430000000    -0.557432   
O60      O      0.379950000000     0.178520000000     0.628850000000    -0.554421   
O61      O      0.345530000000     0.142450000000     0.626980000000    -0.557429   
O62      O      0.308850000000     0.173260000000     0.651840000000    -0.557679   
O63      O      0.323100000000     0.162460000000     0.591090000000    -0.55821    
O64      O      0.331220000000     0.153260000000     0.687760000000    -0.557796   
O65      O      0.018380000000     0.524320000000     0.923580000000    -0.552881   
O66      O      0.023440000000     0.513020000000     0.020460000000    -0.560001   
O67      O      0.036720000000     0.500580000000     0.959950000000    -0.557985   
O68      O      0.005160000000     0.536650000000     0.983990000000    -0.549544   
O69      O      0.968890000000     0.502370000000     0.981930000000    -0.553847   
O70      O      0.000330000000     0.466200000000     0.957340000000    -0.551113   
O71      O      0.987200000000     0.478460000000     0.017950000000    -0.563927   
O72      O      0.981980000000     0.489930000000     0.921300000000    -0.557434   
O73      O      0.681000000000     0.855680000000     0.255640000000    -0.557292   
O74      O      0.686130000000     0.845240000000     0.352880000000    -0.557105   
O75      O      0.701880000000     0.834760000000     0.292910000000    -0.554433   
O76      O      0.665240000000     0.865950000000     0.315460000000    -0.559405   
O77      O      0.630700000000     0.830040000000     0.312480000000    -0.552657   
O78      O      0.667410000000     0.798790000000     0.290060000000    -0.557372   
O79      O      0.651500000000     0.809120000000     0.349790000000    -0.557533   
O80      O      0.646470000000     0.819470000000     0.252560000000    -0.557722   
O81      O      0.811750000000     0.648900000000     0.096070000000    -0.552482   
O82      O      0.826460000000     0.648980000000     0.193000000000    -0.556009   
O83      O      0.801100000000     0.665100000000     0.155580000000    -0.555536   
O84      O      0.836850000000     0.632810000000     0.133560000000    -0.557352   
O85      O      0.870850000000     0.669120000000     0.126680000000    -0.556699   
O86      O      0.835200000000     0.701400000000     0.149230000000    -0.558002   
O87      O      0.860350000000     0.685260000000     0.186370000000    -0.553864   
O88      O      0.845480000000     0.685340000000     0.089610000000    -0.557069   
O89      O      0.483210000000     0.989780000000     0.426330000000    -0.555319   
O90      O      0.495160000000     0.985880000000     0.523540000000    -0.554835   
O91      O      0.473180000000     0.005770000000     0.486280000000    -0.557679   
O92      O      0.505010000000     0.969780000000     0.463490000000    -0.558373   
O93      O      0.540860000000     0.004710000000     0.460020000000    -0.556987   
O94      O      0.508840000000     0.040810000000     0.481630000000    -0.557128   
O95      O      0.530490000000     0.021150000000     0.519400000000    -0.555748   
O96      O      0.519220000000     0.024490000000     0.422160000000    -0.559428   
O97      O      0.352870000000     0.174990000000     0.191250000000    -0.555286   
O98      O      0.353750000000     0.160650000000     0.094380000000    -0.555965   
O99      O      0.368630000000     0.201760000000     0.131790000000    -0.557181   
O100     O      0.338060000000     0.133820000000     0.153720000000    -0.556355   
O101     O      0.301270000000     0.130410000000     0.146350000000    -0.55721    
O102     O      0.331840000000     0.198560000000     0.125670000000    -0.556686   
O103     O      0.317170000000     0.157830000000     0.087450000000    -0.558916   
O104     O      0.315890000000     0.171010000000     0.184430000000    -0.555774   
O105     O      0.472560000000     0.491540000000     0.926930000000    -0.556975   
O106     O      0.481370000000     0.507480000000     0.024020000000    -0.553384   
O107     O      0.492880000000     0.533340000000     0.963630000000    -0.55218    
O108     O      0.461080000000     0.465550000000     0.987270000000    -0.555339   
O109     O      0.497110000000     0.467000000000     0.987070000000    -0.553966   
O110     O      0.528680000000     0.534350000000     0.961720000000    -0.557475   
O111     O      0.517610000000     0.509390000000     0.022730000000    -0.555853   
O112     O      0.508140000000     0.491870000000     0.926060000000    -0.55211    
O113     O      0.161160000000     0.840730000000     0.352500000000    -0.556824   
O114     O      0.149640000000     0.822890000000     0.256030000000    -0.556721   
O115     O      0.139120000000     0.798200000000     0.317270000000    -0.559888   
O116     O      0.171650000000     0.865400000000     0.291330000000    -0.555901   
O117     O      0.207270000000     0.865990000000     0.289880000000    -0.55431    
O118     O      0.174480000000     0.798090000000     0.313530000000    -0.555054   
O119     O      0.185640000000     0.824050000000     0.253180000000    -0.55781    
O120     O      0.196220000000     0.839940000000     0.350180000000    -0.557503   
O121     O      0.014380000000     0.491890000000     0.421580000000    -0.554036   
O122     O      0.022210000000     0.505210000000     0.519380000000    -0.55719    
O123     O      0.000250000000     0.464430000000     0.480360000000    -0.550076   
O124     O      0.036370000000     0.532820000000     0.460570000000    -0.555687   
O125     O      0.001740000000     0.534190000000     0.461280000000    -0.549573   
O126     O      0.965710000000     0.465970000000     0.481170000000    -0.551334   
O127     O      0.987720000000     0.506870000000     0.520100000000    -0.562692   
O128     O      0.979860000000     0.493470000000     0.422270000000    -0.552634   
O129     O      0.826760000000     0.172390000000     0.682730000000    -0.558534   
O130     O      0.818090000000     0.156350000000     0.585700000000    -0.558327   
O131     O      0.806880000000     0.130480000000     0.646060000000    -0.556311   
O132     O      0.838120000000     0.198220000000     0.622270000000    -0.556897   
O133     O      0.874250000000     0.199570000000     0.620580000000    -0.558694   
O134     O      0.843050000000     0.132210000000     0.645760000000    -0.554963   
O135     O      0.853960000000     0.157120000000     0.584810000000    -0.556344   
O136     O      0.863260000000     0.174530000000     0.681540000000    -0.556282   
O137     O      0.683140000000     0.822560000000     0.755710000000    -0.556043   
O138     O      0.690900000000     0.839980000000     0.852150000000    -0.555851   
O139     O      0.668850000000     0.797660000000     0.816610000000    -0.556296   
O140     O      0.705320000000     0.865070000000     0.791080000000    -0.555816   
O141     O      0.670740000000     0.866810000000     0.789940000000    -0.558635   
O142     O      0.634290000000     0.799420000000     0.814930000000    -0.55741    
O143     O      0.656480000000     0.841710000000     0.850780000000    -0.556335   
O144     O      0.648820000000     0.824610000000     0.753930000000    -0.556271   
S1       S      0.847580000000     0.091360000000     0.650210000000    -0.0276985  
S2       S      0.920560000000     0.424460000000     0.482490000000    -0.0249666  
S3       S      0.001740000000     0.577590000000     0.463310000000    -0.0207345  
S4       S      0.488320000000     0.573880000000     0.954470000000    -0.0253731  
S5       S      0.167810000000     0.906450000000     0.284990000000    -0.0254271  
S6       S      0.501300000000     0.425960000000     0.991630000000    -0.0242888  
S7       S      0.689190000000     0.794250000000     0.705320000000    -0.0277528  
S8       S      0.716780000000     0.844860000000     0.911700000000    -0.0255585  
S9       S      0.747070000000     0.840880000000     0.279620000000    -0.026137   
S10      S      0.585410000000     0.824770000000     0.322990000000    -0.0263578  
S11      S      0.040310000000     0.496420000000     0.579510000000    -0.0248948  
S12      S      0.960890000000     0.501150000000     0.362210000000    -0.0253355  
S13      S      0.008230000000     0.581720000000     0.982860000000    -0.0173376  
S14      S      0.384900000000     0.213550000000     0.750870000000    -0.0246178  
S15      S      0.284530000000     0.155650000000     0.240880000000    -0.0267806  
S16      S      0.425350000000     0.183800000000     0.620540000000    -0.0248886  
S17      S      0.085010000000     0.323720000000     0.819390000000    -0.0233955  
S18      S      0.247470000000     0.338310000000     0.796470000000    -0.0270123  
S19      S      0.512140000000     0.462400000000     0.874600000000    -0.026211   
S20      S      0.457240000000     0.502390000000     0.085760000000    -0.0251317  
S21      S      0.866780000000     0.219950000000     0.040440000000    -0.0266517  
S22      S      0.851850000000     0.117710000000     0.233330000000    -0.0275701  
S23      S      0.135360000000     0.354200000000     0.400080000000    -0.0274478  
S24      S      0.129360000000     0.292290000000     0.916980000000    -0.0229955  
S25      S      0.911840000000     0.239590000000     0.146480000000    -0.025923   
S26      S      0.246800000000     0.326110000000     0.321820000000    -0.0261553  
S27      S      0.546010000000     0.050760000000     0.577970000000    -0.0280058  
S28      S      0.474160000000     0.028350000000     0.067870000000    -0.0256921  
S29      S      0.767220000000     0.075660000000     0.116200000000    -0.0257026  
S30      S      0.210270000000     0.821660000000     0.701070000000    -0.0281068  
S31      S      0.162360000000     0.870110000000     0.913810000000    -0.025176   
S32      S      0.433180000000     0.008870000000     0.956390000000    -0.0242678  
S33      S      0.795470000000     0.618190000000     0.038560000000    -0.0275639  
S34      S      0.876630000000     0.716210000000     0.243570000000    -0.0290336  
S35      S      0.576650000000     0.589280000000     0.491120000000    -0.0267685  
S36      S      0.908680000000     0.657610000000     0.662380000000    -0.0273606  
V1       V      0.834920000000     0.647950000000     0.644010000000     1.39659    
V2       V      0.839400000000     0.688100000000     0.638570000000     1.39251    
V3       V      0.171110000000     0.854710000000     0.804630000000     1.39943    
V4       V      0.172830000000     0.817390000000     0.802470000000     1.39407    
V5       V      0.502360000000     0.977950000000     0.975480000000     1.39213    
V6       V      0.507070000000     0.018200000000     0.970390000000     1.39946    
V7       V      0.170810000000     0.310360000000     0.307470000000     1.39831    
V8       V      0.171740000000     0.348960000000     0.303130000000     1.39625    
V9       V      0.837120000000     0.175300000000     0.137510000000     1.3964     
V10      V      0.841800000000     0.140030000000     0.129150000000     1.3983     
V11      V      0.501990000000     0.525760000000     0.477380000000     1.39212    
V12      V      0.505910000000     0.489760000000     0.471930000000     1.39861    
V13      V      0.147920000000     0.311440000000     0.806430000000     1.39962    
V14      V      0.184660000000     0.350840000000     0.804810000000     1.39739    
V15      V      0.363020000000     0.195480000000     0.640660000000     1.40081    
V16      V      0.325810000000     0.156420000000     0.639360000000     1.39602    
V17      V      0.022370000000     0.519990000000     0.972100000000     1.40804    
V18      V      0.983150000000     0.482890000000     0.969550000000     1.38355    
V19      V      0.684940000000     0.851820000000     0.304340000000     1.40013    
V20      V      0.647640000000     0.812930000000     0.301080000000     1.39674    
V21      V      0.817680000000     0.647520000000     0.144820000000     1.39494    
V22      V      0.854330000000     0.686700000000     0.137700000000     1.39799    
V23      V      0.487720000000     0.986410000000     0.475100000000     1.3917     
V24      V      0.526260000000     0.024160000000     0.470620000000     1.4026     
V25      V      0.354790000000     0.167940000000     0.143070000000     1.39125    
V26      V      0.315100000000     0.164330000000     0.135680000000     1.40243    
V27      V      0.475550000000     0.499420000000     0.975530000000     1.39659    
V28      V      0.514310000000     0.500710000000     0.974340000000     1.39797    
V29      V      0.153990000000     0.831790000000     0.304370000000     1.40371    
V30      V      0.192320000000     0.832030000000     0.301570000000     1.38991    
V31      V      0.019690000000     0.498540000000     0.470440000000     1.40356    
V32      V      0.982380000000     0.500160000000     0.471230000000     1.39185    
V33      V      0.821030000000     0.164310000000     0.634250000000     1.3954     
V34      V      0.860070000000     0.165940000000     0.633120000000     1.39801    
V35      V      0.688430000000     0.831280000000     0.803950000000     1.40272    
V36      V      0.651210000000     0.833200000000     0.802310000000     1.39324    


