data_structure

_audit_creation_method RASPA-1.0
_audit_creation_date 2023-6-5
_audit_author_name 'Poobodin Mano'

_cell_length_a    62.799
_cell_length_b    62.7855
_cell_length_c    37.9755
_cell_angle_alpha 89.9371
_cell_angle_beta  90.063
_cell_angle_gamma 119.925
_cell_volume      129770

_symmetry_cell_setting          triclinic
_symmetry_space_group_name_Hall 'P 1'
_symmetry_space_group_name_H-M  'P 1'
_symmetry_Int_Tables_number     1

_symmetry_equiv_pos_as_xyz 'x,y,z'

loop_
_atom_site_label
_atom_site_type_symbol
_atom_site_fract_x
_atom_site_fract_y
_atom_site_fract_z
_atom_site_charge
C1       C      0.881700000000     0.692730000000     0.596480000000     0.479262   
C2       C      0.860190000000     0.685190000000     0.726420000000     0.479322   
C3       C      0.825780000000     0.665720000000     0.644580000000     0.47853    
C4       C      0.916100000000     0.712190000000     0.678330000000     0.479069   
C5       C      0.214710000000     0.861420000000     0.762390000000     0.479563   
C6       C      0.194210000000     0.847570000000     0.892650000000     0.479562   
C7       C      0.249720000000     0.876150000000     0.843530000000     0.479392   
C8       C      0.159120000000     0.832840000000     0.811450000000     0.478975   
C9       C      0.549030000000     0.024450000000     0.929650000000     0.478913   
C10      C      0.526300000000     0.018570000000     0.059020000000     0.478595   
C11      C      0.492670000000     0.998150000000     0.976740000000     0.47934    
C12      C      0.582700000000     0.044880000000     0.011920000000     0.478557   
C13      C      0.194010000000     0.353080000000     0.391570000000     0.479382   
C14      C      0.215520000000     0.359290000000     0.261720000000     0.479046   
C15      C      0.249840000000     0.379700000000     0.343330000000     0.478582   
C16      C      0.159480000000     0.332600000000     0.309930000000     0.47859    
C17      C      0.881470000000     0.195890000000     0.095980000000     0.479207   
C18      C      0.860580000000     0.182040000000     0.226130000000     0.479231   
C19      C      0.916280000000     0.210770000000     0.177470000000     0.478517   
C20      C      0.825790000000     0.167170000000     0.144750000000     0.478802   
C21      C      0.548080000000     0.529950000000     0.429730000000     0.47973    
C22      C      0.526900000000     0.516110000000     0.559790000000     0.479385   
C23      C      0.582760000000     0.544750000000     0.511330000000     0.478818   
C24      C      0.492360000000     0.501330000000     0.478130000000     0.479123   
C25      C      0.216100000000     0.357100000000     0.891040000000     0.479447   
C26      C      0.200760000000     0.363390000000     0.761150000000     0.479541   
C27      C      0.230750000000     0.337380000000     0.809400000000     0.479486   
C28      C      0.186090000000     0.383140000000     0.842810000000     0.47944    
C29      C      0.374480000000     0.181970000000     0.725050000000     0.478848   
C30      C      0.371000000000     0.199820000000     0.595350000000     0.479016   
C31      C      0.350650000000     0.214060000000     0.676840000000     0.47945    
C32      C      0.394760000000     0.167730000000     0.643590000000     0.479145   
C33      C      0.041890000000     0.515610000000     0.060060000000     0.479582   
C34      C      0.034090000000     0.529420000000     0.930060000000     0.479586   
C35      C      0.014140000000     0.543840000000     0.011840000000     0.479176   
C36      C      0.061870000000     0.501230000000     0.978280000000     0.479648   
C37      C      0.702670000000     0.864630000000     0.262670000000     0.479357   
C38      C      0.708960000000     0.849270000000     0.392560000000     0.479286   
C39      C      0.729280000000     0.835180000000     0.310840000000     0.479613   
C40      C      0.682330000000     0.878630000000     0.344250000000     0.479549   
C41      C      0.864330000000     0.692310000000     0.096280000000     0.479607   
C42      C      0.878150000000     0.685690000000     0.226620000000     0.479626   
C43      C      0.849850000000     0.712950000000     0.177270000000     0.479536   
C44      C      0.892640000000     0.665060000000     0.145630000000     0.47948    
C45      C      0.528530000000     0.024140000000     0.429540000000     0.478921   
C46      C      0.545470000000     0.018830000000     0.559130000000     0.479073   
C47      C      0.514680000000     0.044320000000     0.511430000000     0.479266   
C48      C      0.559300000000     0.998670000000     0.477210000000     0.479529   
C49      C      0.368200000000     0.177180000000     0.095570000000     0.478991   
C50      C      0.374130000000     0.199460000000     0.225120000000     0.479105   
C51      C      0.348770000000     0.143230000000     0.177640000000     0.478826   
C52      C      0.393530000000     0.233400000000     0.143060000000     0.478979   
C53      C      0.542330000000     0.532360000000     0.059870000000     0.479721   
C54      C      0.528390000000     0.511700000000     0.929660000000     0.478832   
C55      C      0.513390000000     0.476730000000     0.010960000000     0.479082   
C56      C      0.557240000000     0.567300000000     0.978590000000     0.479311   
C57      C      0.212980000000     0.865640000000     0.392530000000     0.479726   
C58      C      0.199080000000     0.844350000000     0.262510000000     0.479699   
C59      C      0.183990000000     0.809810000000     0.344260000000     0.478964   
C60      C      0.228140000000     0.900190000000     0.310850000000     0.479607   
C61      C      0.034500000000     0.511700000000     0.429940000000     0.479757   
C62      C      0.041080000000     0.532280000000     0.560170000000     0.479304   
C63      C      0.014060000000     0.476700000000     0.511150000000     0.479114   
C64      C      0.061510000000     0.567260000000     0.478950000000     0.478834   
C65      C      0.863380000000     0.178110000000     0.595990000000     0.47931    
C66      C      0.877300000000     0.199050000000     0.726110000000     0.479367   
C67      C      0.892150000000     0.233810000000     0.644590000000     0.478867   
C68      C      0.848480000000     0.143320000000     0.677400000000     0.478793   
C69      C      0.705860000000     0.866100000000     0.891930000000     0.479238   
C70      C      0.699330000000     0.844130000000     0.762210000000     0.47938    
C71      C      0.726010000000     0.900170000000     0.809990000000     0.478464   
C72      C      0.679170000000     0.809950000000     0.844220000000     0.478818   
C73      C      0.811980000000     0.106880000000     0.694350000000     0.0770068  
C74      C      0.799980000000     0.082740000000     0.706800000000    -0.0978499  
C75      C      0.813270000000     0.070640000000     0.713010000000     0.0508923  
C76      C      0.838510000000     0.083160000000     0.705820000000    -0.0976682  
C77      C      0.849920000000     0.107290000000     0.693230000000     0.0766825  
C78      C      0.800880000000     0.045260000000     0.727500000000    -0.00839258 
C79      C      0.777510000000     0.027580000000     0.715310000000    -0.0361164  
C80      C      0.765500000000     0.003940000000     0.729660000000    -0.0358614  
C81      C      0.776540000000     0.997410000000     0.756640000000    -0.00846286 
C82      C      0.800020000000     0.015040000000     0.768610000000    -0.0359462  
C83      C      0.812060000000     0.038690000000     0.754180000000    -0.0360446  
C84      C      0.763530000000     0.972300000000     0.772140000000     0.0508831  
C85      C      0.738170000000     0.960370000000     0.778300000000    -0.0977621  
C86      C      0.726020000000     0.936460000000     0.791610000000     0.0769956  
C87      C      0.763480000000     0.935940000000     0.793810000000     0.0765966  
C88      C      0.776210000000     0.959870000000     0.780460000000    -0.0974477  
C89      C      0.013760000000     0.440070000000     0.528370000000     0.0765648  
C90      C      0.001460000000     0.415950000000     0.540910000000    -0.0957927  
C91      C      0.976090000000     0.404070000000     0.546900000000     0.0487929  
C92      C      0.963550000000     0.416760000000     0.539360000000    -0.096775   
C93      C      0.976430000000     0.440860000000     0.526690000000     0.0747969  
C94      C      0.962950000000     0.378730000000     0.561530000000    -0.00801951 
C95      C      0.968560000000     0.360890000000     0.549730000000    -0.0365578  
C96      C      0.956820000000     0.337310000000     0.564270000000    -0.0359688  
C97      C      0.939200000000     0.330990000000     0.591040000000    -0.00859537 
C98      C      0.933380000000     0.348750000000     0.602590000000    -0.0360118  
C99      C      0.945110000000     0.372350000000     0.587980000000    -0.0363708  
C100     C      0.927010000000     0.305950000000     0.606760000000     0.0507247  
C101     C      0.940380000000     0.293980000000     0.613440000000    -0.0979208  
C102     C      0.928530000000     0.270080000000     0.626810000000     0.0769004  
C103     C      0.890600000000     0.269680000000     0.628160000000     0.0765157  
C104     C      0.901880000000     0.293600000000     0.614740000000    -0.097446   
C105     C      0.147500000000     0.773700000000     0.362180000000     0.0769461  
C106     C      0.135540000000     0.749830000000     0.375660000000    -0.097808   
C107     C      0.148790000000     0.737760000000     0.382440000000     0.0508524  
C108     C      0.173920000000     0.749970000000     0.374480000000    -0.0974643  
C109     C      0.185310000000     0.773860000000     0.360950000000     0.0767168  
C110     C      0.136500000000     0.712740000000     0.398260000000    -0.00842088 
C111     C      0.118890000000     0.706540000000     0.425010000000    -0.0359263  
C112     C      0.107090000000     0.682990000000     0.439690000000    -0.0361147  
C113     C      0.112640000000     0.665080000000     0.428050000000    -0.00838862 
C114     C      0.130440000000     0.671330000000     0.401590000000    -0.0360692  
C115     C      0.142220000000     0.694890000000     0.386840000000    -0.0359761  
C116     C      0.099490000000     0.639810000000     0.442870000000     0.0508581  
C117     C      0.074130000000     0.627950000000     0.448910000000    -0.0977593  
C118     C      0.061820000000     0.603870000000     0.461580000000     0.0770983  
C119     C      0.099130000000     0.603050000000     0.463330000000     0.0766719  
C120     C      0.112020000000     0.627120000000     0.450540000000    -0.0976206  
C121     C      0.593720000000     0.603700000000     0.961440000000     0.076835   
C122     C      0.605680000000     0.627810000000     0.948830000000    -0.0977212  
C123     C      0.592370000000     0.639890000000     0.942620000000     0.050816   
C124     C      0.567170000000     0.627410000000     0.950050000000    -0.0975529  
C125     C      0.555790000000     0.603330000000     0.962810000000     0.0765615  
C126     C      0.604700000000     0.665190000000     0.927880000000    -0.00840505 
C127     C      0.628110000000     0.682940000000     0.939820000000    -0.0361443  
C128     C      0.640030000000     0.706520000000     0.925240000000    -0.0359217  
C129     C      0.628870000000     0.712900000000     0.898270000000    -0.00842329 
C130     C      0.605340000000     0.695200000000     0.886550000000    -0.0359858  
C131     C      0.593380000000     0.671620000000     0.901210000000    -0.0360812  
C132     C      0.641790000000     0.737940000000     0.882530000000     0.0508461  
C133     C      0.667130000000     0.749860000000     0.876190000000    -0.0977515  
C134     C      0.679220000000     0.773720000000     0.862700000000     0.0771218  
C135     C      0.641740000000     0.774190000000     0.860600000000     0.0766553  
C136     C      0.629060000000     0.750320000000     0.874140000000    -0.0975268  
C137     C      0.311690000000     0.106790000000     0.192970000000     0.0767221  
C138     C      0.299340000000     0.082780000000     0.205990000000    -0.097698   
C139     C      0.312470000000     0.070880000000     0.214630000000     0.051059   
C140     C      0.337940000000     0.083460000000     0.209390000000    -0.0976574  
C141     C      0.349740000000     0.107500000000     0.196490000000     0.076973   
C142     C      0.299760000000     0.045630000000     0.229510000000    -0.00842786 
C143     C      0.281500000000     0.038940000000     0.255380000000    -0.0359257  
C144     C      0.269810000000     0.015300000000     0.269810000000    -0.0359297  
C145     C      0.276050000000     0.997760000000     0.258620000000    -0.00838234 
C146     C      0.294220000000     0.004450000000     0.232580000000    -0.0358064  
C147     C      0.305960000000     0.028100000000     0.218260000000    -0.0359752  
C148     C      0.263620000000     0.972560000000     0.273840000000     0.0508813  
C149     C      0.238370000000     0.960180000000     0.281080000000    -0.0975105  
C150     C      0.226880000000     0.936180000000     0.294180000000     0.0768824  
C151     C      0.264770000000     0.936470000000     0.293790000000     0.0768193  
C152     C      0.276840000000     0.960480000000     0.280800000000    -0.0976086  
C153     C      0.514770000000     0.440710000000     0.026970000000     0.0765989  
C154     C      0.503360000000     0.416660000000     0.039900000000    -0.0973179  
C155     C      0.478160000000     0.404250000000     0.047450000000     0.0508853  
C156     C      0.464890000000     0.416330000000     0.040940000000    -0.0978172  
C157     C      0.476860000000     0.440360000000     0.028080000000     0.0770746  
C158     C      0.465840000000     0.379020000000     0.062560000000    -0.00839282 
C159     C      0.471900000000     0.361460000000     0.050830000000    -0.0359696  
C160     C      0.460280000000     0.337780000000     0.065130000000    -0.0359941  
C161     C      0.442310000000     0.331090000000     0.091440000000    -0.00838175 
C162     C      0.436300000000     0.348650000000     0.103250000000    -0.0360567  
C163     C      0.447950000000     0.372330000000     0.089020000000    -0.0358383  
C164     C      0.429670000000     0.305790000000     0.106220000000     0.051015   
C165     C      0.442790000000     0.293730000000     0.113960000000    -0.0978685  
C166     C      0.430490000000     0.269700000000     0.126910000000     0.0769126  
C167     C      0.392560000000     0.269300000000     0.125140000000     0.076851   
C168     C      0.404290000000     0.293350000000     0.112290000000    -0.0976259  
C169     C      0.680990000000     0.841150000000     0.706200000000     0.0771451  
C170     C      0.681490000000     0.839800000000     0.669550000000    -0.098614   
C171     C      0.699670000000     0.836680000000     0.653160000000     0.051471   
C172     C      0.716630000000     0.834210000000     0.674130000000    -0.098261   
C173     C      0.715900000000     0.836120000000     0.710720000000     0.0768984  
C174     C      0.701790000000     0.837500000000     0.614330000000    -0.00904515 
C175     C      0.702850000000     0.857340000000     0.595700000000    -0.0360722  
C176     C      0.705410000000     0.858660000000     0.559150000000    -0.0360235  
C177     C      0.706520000000     0.839970000000     0.540450000000    -0.00906402 
C178     C      0.705210000000     0.819970000000     0.558980000000    -0.0363942  
C179     C      0.703150000000     0.818890000000     0.595730000000    -0.0363688  
C180     C      0.708610000000     0.841350000000     0.501620000000     0.051456   
C181     C      0.726750000000     0.862670000000     0.485240000000    -0.0986614  
C182     C      0.727240000000     0.864580000000     0.448600000000     0.0771784  
C183     C      0.692400000000     0.824670000000     0.444050000000     0.0767539  
C184     C      0.691680000000     0.821970000000     0.480650000000    -0.0982541  
C185     C      0.719230000000     0.889400000000     0.211380000000     0.0769535  
C186     C      0.719560000000     0.892530000000     0.174930000000    -0.0975068  
C187     C      0.701950000000     0.873720000000     0.153680000000     0.050596   
C188     C      0.683720000000     0.852390000000     0.170190000000    -0.0973133  
C189     C      0.683760000000     0.850000000000     0.206750000000     0.0768829  
C190     C      0.703140000000     0.875850000000     0.114540000000    -0.00815144 
C191     C      0.725940000000     0.887450000000     0.097090000000    -0.03585    
C192     C      0.727100000000     0.888150000000     0.060330000000    -0.0359159  
C193     C      0.705500000000     0.877020000000     0.039980000000    -0.00828914 
C194     C      0.682700000000     0.865880000000     0.057440000000    -0.0356929  
C195     C      0.681540000000     0.865430000000     0.094190000000    -0.035985   
C196     C      0.706680000000     0.876070000000     0.000850000000     0.0510056  
C197     C      0.724890000000     0.872910000000     0.984380000000    -0.0975321  
C198     C      0.724830000000     0.870440000000     0.947840000000     0.076931   
C199     C      0.689360000000     0.874450000000     0.943130000000     0.0769948  
C200     C      0.689070000000     0.877300000000     0.979570000000    -0.0976958  
C201     C      0.766720000000     0.836770000000     0.294580000000     0.0767382  
C202     C      0.779380000000     0.825550000000     0.281040000000    -0.0975472  
C203     C      0.766620000000     0.800480000000     0.272650000000     0.050886   
C204     C      0.741290000000     0.787110000000     0.279040000000    -0.0978776  
C205     C      0.729220000000     0.798900000000     0.292540000000     0.0770726  
C206     C      0.779480000000     0.788340000000     0.256800000000    -0.00841274 
C207     C      0.802950000000     0.793950000000     0.268550000000    -0.0360524  
C208     C      0.814780000000     0.782190000000     0.253910000000    -0.0360245  
C209     C      0.803380000000     0.764530000000     0.227230000000    -0.00855877 
C210     C      0.780050000000     0.759150000000     0.215200000000    -0.0360129  
C211     C      0.768260000000     0.770930000000     0.229760000000    -0.0360304  
C212     C      0.815470000000     0.751280000000     0.212660000000     0.050984   
C213     C      0.840670000000     0.763680000000     0.205300000000    -0.0977429  
C214     C      0.851810000000     0.750690000000     0.192720000000     0.076705   
C215     C      0.813620000000     0.713490000000     0.194160000000     0.0769796  
C216     C      0.801910000000     0.725920000000     0.206600000000    -0.0978747  
C217     C      0.682180000000     0.914970000000     0.361740000000     0.0770643  
C218     C      0.669910000000     0.926820000000     0.374320000000    -0.0979175  
C219     C      0.644540000000     0.913410000000     0.380290000000     0.0510155  
C220     C      0.631960000000     0.888230000000     0.372700000000    -0.0978294  
C221     C      0.644790000000     0.876980000000     0.359950000000     0.0768058  
C222     C      0.631410000000     0.925590000000     0.394920000000    -0.0084647  
C223     C      0.636790000000     0.948910000000     0.382810000000    -0.0361319  
C224     C      0.624880000000     0.960650000000     0.397160000000    -0.0358702  
C225     C      0.607360000000     0.949400000000     0.424070000000    -0.00849577 
C226     C      0.601870000000     0.925990000000     0.436010000000    -0.0359084  
C227     C      0.613730000000     0.914200000000     0.421560000000    -0.0361459  
C228     C      0.594920000000     0.962090000000     0.439510000000     0.0509573  
C229     C      0.607940000000     0.987470000000     0.445530000000    -0.0977255  
C230     C      0.595850000000     0.999320000000     0.458760000000     0.0770399  
C231     C      0.558340000000     0.961480000000     0.461240000000     0.0767702  
C232     C      0.569860000000     0.949050000000     0.447930000000    -0.0975957  
C233     C      0.015390000000     0.513410000000     0.874470000000     0.0772769  
C234     C      0.015550000000     0.514950000000     0.837790000000    -0.0986494  
C235     C      0.033400000000     0.536200000000     0.820910000000     0.0516071  
C236     C      0.050370000000     0.555880000000     0.841420000000    -0.0984007  
C237     C      0.049980000000     0.553550000000     0.878040000000     0.0770777  
C238     C      0.035160000000     0.537250000000     0.782050000000    -0.00900783 
C239     C      0.036150000000     0.518410000000     0.763560000000    -0.0360149  
C240     C      0.038440000000     0.519450000000     0.726960000000    -0.0359972  
C241     C      0.039370000000     0.539150000000     0.708110000000    -0.0090288  
C242     C      0.038120000000     0.557900000000     0.726520000000    -0.0363302  
C243     C      0.036320000000     0.557100000000     0.763280000000    -0.0363056  
C244     C      0.041200000000     0.539690000000     0.669260000000     0.0516724  
C245     C      0.059160000000     0.536310000000     0.652680000000    -0.0986565  
C246     C      0.059480000000     0.534900000000     0.616020000000     0.0772589  
C247     C      0.024790000000     0.540320000000     0.611890000000     0.0771623  
C248     C      0.024240000000     0.542290000000     0.648490000000    -0.0984273  
C249     C      0.060550000000     0.531570000000     0.115690000000     0.0771925  
C250     C      0.060390000000     0.529950000000     0.152360000000    -0.0986302  
C251     C      0.042580000000     0.508640000000     0.169170000000     0.051659   
C252     C      0.025650000000     0.488990000000     0.148610000000    -0.0983563  
C253     C      0.026040000000     0.491390000000     0.112000000000     0.0772299  
C254     C      0.040820000000     0.507500000000     0.208040000000    -0.0089997  
C255     C      0.039780000000     0.526260000000     0.226670000000    -0.0359383  
C256     C      0.037430000000     0.525090000000     0.263260000000    -0.0360512  
C257     C      0.036490000000     0.505330000000     0.281960000000    -0.00897685 
C258     C      0.037790000000     0.486670000000     0.263420000000    -0.0362745  
C259     C      0.039660000000     0.487600000000     0.226660000000    -0.0363144  
C260     C      0.034570000000     0.504640000000     0.320800000000     0.0515672  
C261     C      0.016560000000     0.507940000000     0.337400000000    -0.0986014  
C262     C      0.016170000000     0.509220000000     0.374070000000     0.0772623  
C263     C      0.050870000000     0.503800000000     0.378180000000     0.0770205  
C264     C      0.051490000000     0.501960000000     0.341570000000    -0.0983218  
C265     C      0.928880000000     0.664560000000     0.128680000000     0.0769755  
C266     C      0.940620000000     0.652160000000     0.116280000000    -0.0980038  
C267     C      0.927110000000     0.626780000000     0.110350000000     0.0509406  
C268     C      0.901910000000     0.614340000000     0.117790000000    -0.0977213  
C269     C      0.890740000000     0.627320000000     0.130310000000     0.0766738  
C270     C      0.939250000000     0.613570000000     0.095830000000    -0.00868419 
C271     C      0.962680000000     0.619160000000     0.107690000000    -0.0360499  
C272     C      0.974560000000     0.607480000000     0.093090000000    -0.0364623  
C273     C      0.963320000000     0.589940000000     0.066200000000    -0.00794883 
C274     C      0.939730000000     0.584080000000     0.054670000000    -0.0364386  
C275     C      0.927820000000     0.595760000000     0.069340000000    -0.0359171  
C276     C      0.976310000000     0.577980000000     0.050250000000     0.0486944  
C277     C      0.001570000000     0.591580000000     0.043410000000    -0.0956709  
C278     C      0.013790000000     0.579970000000     0.029830000000     0.0764612  
C279     C      0.976570000000     0.541810000000     0.028590000000     0.0749328  
C280     C      0.963760000000     0.552850000000     0.042210000000    -0.0965517  
C281     C      0.356740000000     0.156580000000     0.775550000000     0.0766965  
C282     C      0.355950000000     0.152840000000     0.811920000000    -0.0972783  
C283     C      0.373660000000     0.171050000000     0.833830000000     0.0504722  
C284     C      0.392370000000     0.192410000000     0.818040000000    -0.0972217  
C285     C      0.392780000000     0.195400000000     0.781560000000     0.0769209  
C286     C      0.372130000000     0.168330000000     0.872930000000    -0.00814778 
C287     C      0.349210000000     0.156780000000     0.890060000000    -0.0357404  
C288     C      0.347790000000     0.155710000000     0.926810000000    -0.036119   
C289     C      0.369250000000     0.166440000000     0.947490000000    -0.00786514 
C290     C      0.392160000000     0.177450000000     0.930340000000    -0.0359185  
C291     C      0.393570000000     0.178220000000     0.893600000000    -0.0358885  
C292     C      0.367840000000     0.167230000000     0.986650000000     0.049899   
C293     C      0.349540000000     0.170340000000     0.002930000000    -0.0965856  
C294     C      0.349440000000     0.172770000000     0.039470000000     0.0766685  
C295     C      0.384920000000     0.168840000000     0.044580000000     0.0766154  
C296     C      0.385360000000     0.165980000000     0.008150000000    -0.0967742  
C297     C      0.396000000000     0.210110000000     0.279450000000     0.0770564  
C298     C      0.396750000000     0.213220000000     0.315930000000    -0.0970989  
C299     C      0.375770000000     0.209610000000     0.334150000000     0.0503674  
C300     C      0.354730000000     0.204080000000     0.314410000000    -0.0969849  
C301     C      0.354820000000     0.201700000000     0.277830000000     0.0767239  
C302     C      0.375540000000     0.210620000000     0.373470000000    -0.00834974 
C303     C      0.389570000000     0.203190000000     0.393640000000    -0.0356386  
C304     C      0.388840000000     0.203350000000     0.430380000000    -0.0362907  
C305     C      0.373700000000     0.210390000000     0.447830000000    -0.00906738 
C306     C      0.359640000000     0.217790000000     0.428140000000    -0.036652   
C307     C      0.360760000000     0.218200000000     0.391320000000    -0.0358743  
C308     C      0.372180000000     0.209220000000     0.486580000000     0.0516229  
C309     C      0.392630000000     0.224680000000     0.507010000000    -0.0990259  
C310     C      0.391550000000     0.221960000000     0.543580000000     0.0769856  
C311     C      0.350500000000     0.188960000000     0.539860000000     0.0769125  
C312     C      0.350780000000     0.191570000000     0.503280000000    -0.0984848  
C313     C      0.393470000000     0.130870000000     0.625000000000     0.0769311  
C314     C      0.405120000000     0.118420000000     0.612310000000    -0.0978464  
C315     C      0.430600000000     0.131070000000     0.607260000000     0.0510974  
C316     C      0.443920000000     0.156040000000     0.615980000000    -0.098027   
C317     C      0.431710000000     0.167890000000     0.628860000000     0.0768915  
C318     C      0.443150000000     0.118360000000     0.592440000000    -0.00849812 
C319     C      0.436970000000     0.094710000000     0.604010000000    -0.036075   
C320     C      0.448640000000     0.082670000000     0.589800000000    -0.0358712  
C321     C      0.466650000000     0.093950000000     0.563510000000    -0.00831529 
C322     C      0.472800000000     0.117620000000     0.551930000000    -0.0360104  
C323     C      0.461220000000     0.129710000000     0.566300000000    -0.0360483  
C324     C      0.479080000000     0.081110000000     0.548450000000     0.0508646  
C325     C      0.465980000000     0.055740000000     0.542260000000    -0.0975925  
C326     C      0.478090000000     0.043810000000     0.529340000000     0.077014   
C327     C      0.515740000000     0.081530000000     0.527500000000     0.0767943  
C328     C      0.504230000000     0.094020000000     0.540570000000    -0.0975221  
C329     C      0.149450000000     0.382530000000     0.860600000000     0.0772167  
C330     C      0.137260000000     0.394400000000     0.873410000000    -0.0979397  
C331     C      0.150270000000     0.419780000000     0.879360000000     0.0511922  
C332     C      0.175400000000     0.432790000000     0.871520000000    -0.0978767  
C333     C      0.187010000000     0.420340000000     0.858580000000     0.076849   
C334     C      0.137700000000     0.432470000000     0.894270000000    -0.00848806 
C335     C      0.114080000000     0.426420000000     0.882680000000    -0.0360117  
C336     C      0.101930000000     0.437780000000     0.897430000000    -0.0358701  
C337     C      0.113070000000     0.455430000000     0.924210000000    -0.0084404  
C338     C      0.136800000000     0.461650000000     0.935570000000    -0.035957   
C339     C      0.148980000000     0.450310000000     0.920750000000    -0.0359165  
C340     C      0.099930000000     0.467280000000     0.940070000000     0.0510056  
C341     C      0.074670000000     0.453590000000     0.946870000000    -0.0979344  
C342     C      0.062350000000     0.465140000000     0.960360000000     0.077181   
C343     C      0.099480000000     0.503380000000     0.961590000000     0.076769   
C344     C      0.112380000000     0.492410000000     0.948050000000    -0.0975436  
C345     C      0.313770000000     0.213850000000     0.692210000000     0.0769269  
C346     C      0.301600000000     0.225710000000     0.705180000000    -0.0979563  
C347     C      0.314900000000     0.250760000000     0.713440000000     0.0511144  
C348     C      0.340320000000     0.263470000000     0.707810000000    -0.0977332  
C349     C      0.351940000000     0.251010000000     0.694980000000     0.0768909  
C350     C      0.302380000000     0.263470000000     0.728400000000    -0.00844175 
C351     C      0.284400000000     0.252140000000     0.754670000000    -0.0359936  
C352     C      0.272810000000     0.264190000000     0.769090000000    -0.0359266  
C353     C      0.278880000000     0.287840000000     0.757490000000    -0.00843305 
C354     C      0.296830000000     0.299120000000     0.731120000000    -0.0358123  
C355     C      0.308480000000     0.287100000000     0.716810000000    -0.0360942  
C356     C      0.266430000000     0.300630000000     0.772570000000     0.0509449  
C357     C      0.241250000000     0.287720000000     0.780220000000    -0.0976131  
C358     C      0.229710000000     0.300200000000     0.793240000000     0.076914   
C359     C      0.267410000000     0.337880000000     0.791900000000     0.0770557  
C360     C      0.279540000000     0.325980000000     0.778980000000    -0.0977795  
C361     C      0.504380000000     0.504090000000     0.877620000000     0.0769653  
C362     C      0.502060000000     0.502260000000     0.840980000000    -0.0983572  
C363     C      0.521620000000     0.504650000000     0.820500000000     0.0515911  
C364     C      0.542730000000     0.507630000000     0.837380000000    -0.0986793  
C365     C      0.544260000000     0.508900000000     0.874050000000     0.0771862  
C366     C      0.520630000000     0.505420000000     0.781650000000    -0.00910044 
C367     C      0.500820000000     0.486800000000     0.762830000000    -0.0363622  
C368     C      0.500170000000     0.487780000000     0.726040000000    -0.0363609  
C369     C      0.519020000000     0.507690000000     0.707680000000    -0.00909085 
C370     C      0.538650000000     0.526410000000     0.726580000000    -0.0360758  
C371     C      0.539550000000     0.525180000000     0.763200000000    -0.0360475  
C372     C      0.518700000000     0.508910000000     0.668810000000     0.051618   
C373     C      0.516360000000     0.489380000000     0.648300000000    -0.0984716  
C374     C      0.518610000000     0.491870000000     0.611720000000     0.0771262  
C375     C      0.523780000000     0.531890000000     0.615320000000     0.0772409  
C376     C      0.522090000000     0.530190000000     0.651960000000    -0.0987383  
C377     C      0.566670000000     0.540390000000     0.111610000000     0.077147   
C378     C      0.569250000000     0.542430000000     0.148190000000    -0.0984324  
C379     C      0.549770000000     0.539950000000     0.168950000000     0.051596   
C380     C      0.528420000000     0.536600000000     0.152350000000    -0.0986455  
C381     C      0.526630000000     0.535130000000     0.115690000000     0.0770974  
C382     C      0.551170000000     0.539490000000     0.207790000000    -0.00910653 
C383     C      0.532520000000     0.519830000000     0.226760000000    -0.035971   
C384     C      0.533960000000     0.518810000000     0.263340000000    -0.036077   
C385     C      0.553860000000     0.537640000000     0.281690000000    -0.00898315 
C386     C      0.572410000000     0.557470000000     0.262820000000    -0.0364258  
C387     C      0.571210000000     0.558240000000     0.226070000000    -0.0362485  
C388     C      0.554820000000     0.536620000000     0.320530000000     0.0515347  
C389     C      0.551670000000     0.515420000000     0.337360000000    -0.0985677  
C390     C      0.550560000000     0.513920000000     0.374050000000     0.0770801  
C391     C      0.555880000000     0.554010000000     0.377720000000     0.0771232  
C392     C      0.557550000000     0.556290000000     0.341090000000    -0.0983922  
C393     C      0.901510000000     0.207040000000     0.777990000000     0.0769749  
C394     C      0.903970000000     0.209030000000     0.814590000000    -0.0985244  
C395     C      0.884440000000     0.206550000000     0.835210000000     0.0516093  
C396     C      0.863170000000     0.203280000000     0.818470000000    -0.098783   
C397     C      0.861500000000     0.201860000000     0.781810000000     0.077234   
C398     C      0.885660000000     0.205970000000     0.874060000000    -0.00918957 
C399     C      0.905590000000     0.224680000000     0.892560000000    -0.0363456  
C400     C      0.906570000000     0.223820000000     0.929330000000    -0.0365434  
C401     C      0.887920000000     0.203940000000     0.947990000000    -0.0088972  
C402     C      0.868140000000     0.185140000000     0.929410000000    -0.0362167  
C403     C      0.866910000000     0.186260000000     0.892810000000    -0.0360144  
C404     C      0.888640000000     0.202820000000     0.986840000000     0.05097    
C405     C      0.891200000000     0.222410000000     0.007420000000    -0.0980282  
C406     C      0.889340000000     0.220020000000     0.044030000000     0.0769035  
C407     C      0.884150000000     0.179990000000     0.040310000000     0.0769229  
C408     C      0.885450000000     0.181590000000     0.003640000000    -0.0980977  
C409     C      0.857700000000     0.197860000000     0.281770000000     0.0771485  
C410     C      0.856220000000     0.196190000000     0.318430000000    -0.098696   
C411     C      0.852930000000     0.174920000000     0.335210000000     0.0515822  
C412     C      0.850490000000     0.155380000000     0.314640000000    -0.0984289  
C413     C      0.852540000000     0.157840000000     0.278040000000     0.0769906  
C414     C      0.853450000000     0.173730000000     0.374070000000    -0.0090843  
C415     C      0.834700000000     0.153810000000     0.392560000000    -0.0363597  
C416     C      0.835510000000     0.152870000000     0.429330000000    -0.0363277  
C417     C      0.855370000000     0.171520000000     0.448010000000    -0.00912016 
C418     C      0.874200000000     0.191280000000     0.429440000000    -0.0360529  
C419     C      0.873150000000     0.192470000000     0.392830000000    -0.0360863  
C420     C      0.856460000000     0.170820000000     0.486860000000     0.0516386  
C421     C      0.836900000000     0.168360000000     0.507400000000    -0.0984029  
C422     C      0.839270000000     0.170260000000     0.544020000000     0.0770806  
C423     C      0.879230000000     0.175300000000     0.540360000000     0.0772684  
C424     C      0.877650000000     0.173960000000     0.503690000000    -0.0988543  
C425     C      0.215900000000     0.381820000000     0.705130000000     0.0771519  
C426     C      0.213910000000     0.381370000000     0.668490000000    -0.0986894  
C427     C      0.192620000000     0.363150000000     0.652150000000     0.051607   
C428     C      0.173370000000     0.346070000000     0.673150000000    -0.0983711  
C429     C      0.176150000000     0.346750000000     0.709710000000     0.0770637  
C430     C      0.191130000000     0.361110000000     0.613330000000    -0.00910453 
C431     C      0.170970000000     0.359590000000     0.595010000000    -0.0363035  
C432     C      0.169720000000     0.357450000000     0.558280000000    -0.0363794  
C433     C      0.188320000000     0.356190000000     0.539480000000    -0.00905848 
C434     C      0.208340000000     0.357490000000     0.557890000000    -0.0360957  
C435     C      0.209840000000     0.360140000000     0.594430000000    -0.0359893  
C436     C      0.187270000000     0.353900000000     0.500680000000     0.0515683  
C437     C      0.184570000000     0.370710000000     0.479690000000    -0.0983836  
C438     C      0.186240000000     0.369810000000     0.443080000000     0.0768825  
C439     C      0.191450000000     0.335000000000     0.447680000000     0.077223   
C440     C      0.190350000000     0.335680000000     0.484330000000    -0.0986689  
C441     C      0.219890000000     0.378250000000     0.205790000000     0.076924   
C442     C      0.222620000000     0.378430000000     0.169280000000    -0.0973093  
C443     C      0.226090000000     0.360380000000     0.152910000000     0.0506959  
C444     C      0.227310000000     0.342780000000     0.174240000000    -0.0975665  
C445     C      0.224190000000     0.342950000000     0.210630000000     0.0769452  
C446     C      0.227390000000     0.359360000000     0.113800000000    -0.00818512 
C447     C      0.238470000000     0.381040000000     0.093610000000    -0.0359378  
C448     C      0.238050000000     0.380010000000     0.056840000000    -0.0357566  
C449     C      0.226800000000     0.357270000000     0.039230000000    -0.00820558 
C450     C      0.216480000000     0.335600000000     0.059430000000    -0.0359509  
C451     C      0.216640000000     0.336630000000     0.096190000000    -0.0357122  
C452     C      0.224870000000     0.356190000000     0.000070000000     0.0510447  
C453     C      0.243630000000     0.374040000000     0.979010000000    -0.0977808  
C454     C      0.240620000000     0.373790000000     0.942530000000     0.0770274  
C455     C      0.201490000000     0.337930000000     0.946790000000     0.0771398  
C456     C      0.203750000000     0.337810000000     0.983350000000    -0.0976251  
C457     C      0.123560000000     0.295020000000     0.294450000000     0.0766358  
C458     C      0.099460000000     0.282190000000     0.281780000000    -0.097636   
C459     C      0.086890000000     0.294810000000     0.273990000000     0.05109    
C460     C      0.098910000000     0.320220000000     0.279660000000    -0.0977681  
C461     C      0.123030000000     0.332480000000     0.292200000000     0.0770469  
C462     C      0.061510000000     0.281690000000     0.259500000000    -0.00866036 
C463     C      0.054960000000     0.263670000000     0.233290000000    -0.0354527  
C464     C      0.031310000000     0.251920000000     0.218860000000    -0.0365822  
C465     C      0.013650000000     0.257900000000     0.230360000000    -0.00634662 
C466     C      0.020150000000     0.275720000000     0.256890000000    -0.0365671  
C467     C      0.043790000000     0.287480000000     0.271230000000    -0.0355692  
C468     C      0.988540000000     0.245670000000     0.214850000000     0.0487104  
C469     C      0.976120000000     0.220500000000     0.207090000000    -0.0968311  
C470     C      0.952160000000     0.209200000000     0.193840000000     0.0762004  
C471     C      0.952630000000     0.247180000000     0.194960000000     0.0762683  
C472     C      0.976580000000     0.259040000000     0.208150000000    -0.0969569  
C473     C      0.286260000000     0.379830000000     0.361240000000     0.0770226  
C474     C      0.310320000000     0.392080000000     0.373990000000    -0.0978861  
C475     C      0.322290000000     0.417480000000     0.379780000000     0.0509085  
C476     C      0.309730000000     0.430090000000     0.371860000000    -0.0975998  
C477     C      0.285690000000     0.417270000000     0.358990000000     0.076616   
C478     C      0.347580000000     0.430600000000     0.394550000000    -0.00849362 
C479     C      0.365380000000     0.424850000000     0.383040000000    -0.0360206  
C480     C      0.388940000000     0.436600000000     0.397660000000    -0.0360399  
C481     C      0.395270000000     0.454350000000     0.424240000000    -0.00836128 
C482     C      0.377540000000     0.460300000000     0.435500000000    -0.0360869  
C483     C      0.353970000000     0.448560000000     0.420810000000    -0.0360059  
C484     C      0.420290000000     0.466540000000     0.440060000000     0.0507545  
C485     C      0.432180000000     0.453130000000     0.446990000000    -0.0978502  
C486     C      0.456050000000     0.464960000000     0.460440000000     0.0769755  
C487     C      0.456580000000     0.502970000000     0.461380000000     0.0765569  
C488     C      0.432690000000     0.491710000000     0.447870000000    -0.097389   
C489     C      0.557340000000     0.007600000000     0.878770000000     0.0768328  
C490     C      0.560160000000     0.007070000000     0.842350000000    -0.0973578  
C491     C      0.558970000000     0.024590000000     0.820770000000     0.0505652  
C492     C      0.555920000000     0.042950000000     0.836950000000    -0.0972231  
C493     C      0.553490000000     0.043130000000     0.873470000000     0.0768766  
C494     C      0.559810000000     0.023140000000     0.781640000000    -0.00816958 
C495     C      0.548650000000     0.000230000000     0.764480000000    -0.035684   
C496     C      0.547980000000     0.998820000000     0.727730000000    -0.0360882  
C497     C      0.558170000000     0.020290000000     0.707080000000    -0.00808868 
C498     C      0.569830000000     0.043200000000     0.724240000000    -0.0357704  
C499     C      0.570780000000     0.044610000000     0.760980000000    -0.0359953  
C500     C      0.555700000000     0.018840000000     0.667960000000     0.0504824  
C501     C      0.534320000000     0.000360000000     0.651870000000    -0.0971899  
C502     C      0.531560000000     0.000160000000     0.615360000000     0.0768394  
C503     C      0.570680000000     0.035900000000     0.609910000000     0.0768473  
C504     C      0.574190000000     0.036460000000     0.646310000000    -0.0973882  
C505     C      0.542520000000     0.042830000000     0.373350000000     0.076893   
C506     C      0.539870000000     0.042610000000     0.336820000000    -0.09719    
C507     C      0.518590000000     0.024050000000     0.320630000000     0.0504839  
C508     C      0.500080000000     0.006390000000     0.342200000000    -0.0972532  
C509     C      0.503470000000     0.006980000000     0.378630000000     0.076789   
C510     C      0.516270000000     0.022590000000     0.281490000000    -0.00810328 
C511     C      0.526440000000     0.044050000000     0.260840000000    -0.0359383  
C512     C      0.525940000000     0.042660000000     0.224100000000    -0.035831   
C513     C      0.514970000000     0.019750000000     0.206930000000    -0.00807443 
C514     C      0.504010000000     0.998280000000     0.227580000000    -0.0360329  
C515     C      0.504790000000     0.999680000000     0.264330000000    -0.0357647  
C516     C      0.515980000000     0.018330000000     0.167810000000     0.0504949  
C517     C      0.514780000000     0.035810000000     0.146170000000    -0.0973317  
C518     C      0.517750000000     0.035320000000     0.109770000000     0.0769029  
C519     C      0.521770000000     0.999900000000     0.115220000000     0.0767135  
C520     C      0.519200000000     0.000040000000     0.151730000000    -0.0970677  
C521     C      0.789800000000     0.168680000000     0.128890000000     0.0765451  
C522     C      0.765670000000     0.157290000000     0.116310000000    -0.0975812  
C523     C      0.753100000000     0.132030000000     0.109210000000     0.0508979  
C524     C      0.765140000000     0.118700000000     0.115490000000    -0.0977309  
C525     C      0.789290000000     0.130670000000     0.127910000000     0.0768335  
C526     C      0.727720000000     0.119660000000     0.094740000000    -0.00845782 
C527     C      0.721180000000     0.130810000000     0.067960000000    -0.0359646  
C528     C      0.697530000000     0.118790000000     0.053550000000    -0.0359818  
C529     C      0.679850000000     0.095360000000     0.065650000000    -0.00834981 
C530     C      0.686340000000     0.084360000000     0.092740000000    -0.0359351  
C531     C      0.709980000000     0.096350000000     0.107060000000    -0.0359823  
C532     C      0.654740000000     0.082350000000     0.050130000000     0.0508864  
C533     C      0.642400000000     0.095070000000     0.041480000000    -0.0975295  
C534     C      0.618510000000     0.082350000000     0.028040000000     0.0768128  
C535     C      0.618840000000     0.044810000000     0.030830000000     0.076977   
C536     C      0.642730000000     0.056950000000     0.044230000000    -0.0976164  
C537     C      0.217560000000     0.845650000000     0.706700000000     0.0772942  
C538     C      0.219130000000     0.847390000000     0.670060000000    -0.0987093  
C539     C      0.222540000000     0.868720000000     0.653330000000     0.0516221  
C540     C      0.224970000000     0.888240000000     0.673960000000    -0.0984556  
C541     C      0.222830000000     0.885710000000     0.710550000000     0.0770531  
C542     C      0.222170000000     0.870000000000     0.614480000000    -0.00907982 
C543     C      0.202480000000     0.851360000000     0.595570000000    -0.0360316  
C544     C      0.201590000000     0.852610000000     0.558960000000    -0.0359858  
C545     C      0.220580000000     0.872310000000     0.540520000000    -0.00908755 
C546     C      0.240430000000     0.890870000000     0.559340000000    -0.0363154  
C547     C      0.241070000000     0.889870000000     0.596130000000    -0.0363183  
C548     C      0.219650000000     0.873050000000     0.501660000000     0.0516874  
C549     C      0.198600000000     0.870100000000     0.484650000000    -0.098738   
C550     C      0.197110000000     0.868730000000     0.447990000000     0.0773298  
C551     C      0.236930000000     0.873390000000     0.444660000000     0.0771465  
C552     C      0.239210000000     0.875310000000     0.481290000000    -0.0984569  
C553     C      0.186440000000     0.823380000000     0.944520000000     0.0770995  
C554     C      0.184720000000     0.820980000000     0.981140000000    -0.0987014  
C555     C      0.187480000000     0.840600000000     0.001830000000     0.0521169  
C556     C      0.190740000000     0.861890000000     0.985160000000    -0.0991697  
C557     C      0.191890000000     0.863500000000     0.948480000000     0.0774879  
C558     C      0.188310000000     0.839420000000     0.040660000000    -0.00921152 
C559     C      0.169640000000     0.819570000000     0.059350000000    -0.0362336  
C560     C      0.170690000000     0.818660000000     0.096100000000    -0.0363522  
C561     C      0.190710000000     0.837300000000     0.114570000000    -0.00905143 
C562     C      0.209490000000     0.856970000000     0.095790000000    -0.0360221  
C563     C      0.208190000000     0.858130000000     0.059210000000    -0.035932   
C564     C      0.191940000000     0.836730000000     0.153430000000     0.0516666  
C565     C      0.213180000000     0.839950000000     0.170190000000    -0.0987298  
C566     C      0.214850000000     0.841400000000     0.206860000000     0.0771903  
C567     C      0.174880000000     0.836320000000     0.210620000000     0.0772602  
C568     C      0.172420000000     0.834310000000     0.174030000000    -0.0984563  
C569     C      0.286310000000     0.912580000000     0.860250000000     0.0770511  
C570     C      0.310460000000     0.924490000000     0.872620000000    -0.0979098  
C571     C      0.322440000000     0.911100000000     0.878890000000     0.0509264  
C572     C      0.309800000000     0.885840000000     0.871790000000    -0.097599   
C573     C      0.285660000000     0.874510000000     0.859250000000     0.0765989  
C574     C      0.347810000000     0.923410000000     0.893370000000    -0.00845277 
C575     C      0.365590000000     0.946710000000     0.881070000000    -0.0361037  
C576     C      0.389210000000     0.958670000000     0.895490000000    -0.0358532  
C577     C      0.395630000000     0.947670000000     0.922640000000    -0.00842113 
C578     C      0.377910000000     0.924240000000     0.934690000000    -0.0359459  
C579     C      0.354290000000     0.912230000000     0.920190000000    -0.0360298  
C580     C      0.420690000000     0.960670000000     0.938280000000     0.0507968  
C581     C      0.432690000000     0.986070000000     0.944210000000    -0.0976382  
C582     C      0.456550000000     0.998210000000     0.957700000000     0.076951   
C583     C      0.456890000000     0.960670000000     0.960560000000     0.0766637  
C584     C      0.433020000000     0.947950000000     0.947030000000    -0.0974258  
C585     C      0.852230000000     0.701330000000     0.778380000000     0.0770126  
C586     C      0.850300000000     0.701740000000     0.814990000000    -0.0984563  
C587     C      0.852740000000     0.684590000000     0.835530000000     0.0515628  
C588     C      0.855870000000     0.666540000000     0.818700000000    -0.098657   
C589     C      0.857250000000     0.666360000000     0.782030000000     0.0770282  
C590     C      0.853470000000     0.686350000000     0.874390000000    -0.00912767 
C591     C      0.834910000000     0.687760000000     0.893070000000    -0.0363313  
C592     C      0.835930000000     0.689580000000     0.929830000000    -0.0364752  
C593     C      0.855810000000     0.690590000000     0.948310000000    -0.00887997 
C594     C      0.874440000000     0.689420000000     0.929550000000    -0.0362025  
C595     C      0.873180000000     0.687110000000     0.892960000000    -0.036031   
C596     C      0.857100000000     0.692440000000     0.987150000000     0.0509404  
C597     C      0.837520000000     0.675580000000     0.007890000000    -0.0978373  
C598     C      0.840020000000     0.676120000000     0.044490000000     0.0767673  
C599     C      0.880180000000     0.710630000000     0.040440000000     0.0769964  
C600     C      0.878460000000     0.710310000000     0.003780000000    -0.0981101  
C601     C      0.889740000000     0.676630000000     0.544560000000     0.077072   
C602     C      0.891740000000     0.676250000000     0.507950000000    -0.0984456  
C603     C      0.889340000000     0.693410000000     0.487400000000     0.0515215  
C604     C      0.886170000000     0.711440000000     0.504220000000    -0.0986964  
C605     C      0.884720000000     0.711580000000     0.540880000000     0.0771295  
C606     C      0.888700000000     0.691700000000     0.448540000000    -0.00906137 
C607     C      0.907300000000     0.690300000000     0.429950000000    -0.0365196  
C608     C      0.906350000000     0.688500000000     0.393180000000    -0.0362854  
C609     C      0.886510000000     0.687480000000     0.374610000000    -0.0091928  
C610     C      0.867840000000     0.688660000000     0.393290000000    -0.036022   
C611     C      0.869030000000     0.690950000000     0.429880000000    -0.0361037  
C612     C      0.885270000000     0.685620000000     0.335770000000     0.051634   
C613     C      0.904870000000     0.702480000000     0.315060000000    -0.0986528  
C614     C      0.902400000000     0.701910000000     0.278450000000     0.0770917  
C615     C      0.862260000000     0.667390000000     0.282450000000     0.0772704  
C616     C      0.863930000000     0.667730000000     0.319120000000    -0.0987665  
C617     C      0.619220000000     0.581130000000     0.528650000000     0.0768009  
C618     C      0.643320000000     0.593010000000     0.541260000000    -0.0976643  
C619     C      0.655340000000     0.579620000000     0.547400000000     0.050735   
C620     C      0.642760000000     0.554410000000     0.539950000000    -0.0975946  
C621     C      0.618670000000     0.543120000000     0.527220000000     0.0767037  
C622     C      0.680680000000     0.591870000000     0.562020000000    -0.0083874  
C623     C      0.698430000000     0.615320000000     0.550180000000    -0.0361278  
C624     C      0.722060000000     0.627150000000     0.564590000000    -0.035894   
C625     C      0.728510000000     0.615860000000     0.591280000000    -0.0084486  
C626     C      0.710810000000     0.592300000000     0.602910000000    -0.0359658  
C627     C      0.687180000000     0.580440000000     0.588440000000    -0.0360658  
C628     C      0.753620000000     0.628670000000     0.606810000000     0.0507977  
C629     C      0.765610000000     0.653980000000     0.613420000000    -0.0977885  
C630     C      0.789530000000     0.665960000000     0.626720000000     0.0768129  
C631     C      0.789920000000     0.628410000000     0.628050000000     0.0764964  
C632     C      0.765980000000     0.615850000000     0.614710000000    -0.097375   
C633     C      0.951940000000     0.749480000000     0.694960000000     0.076125   
C634     C      0.975860000000     0.762030000000     0.708360000000    -0.0967775  
C635     C      0.988220000000     0.749210000000     0.716260000000     0.0487092  
C636     C      0.976230000000     0.723900000000     0.709590000000    -0.0972199  
C637     C      0.952330000000     0.711940000000     0.696230000000     0.0765165  
C638     C      0.013300000000     0.762000000000     0.731860000000    -0.0064261  
C639     C      0.031020000000     0.785570000000     0.720300000000    -0.0366033  
C640     C      0.054640000000     0.797390000000     0.734810000000    -0.0355004  
C641     C      0.061120000000     0.785910000000     0.761180000000    -0.00871173 
C642     C      0.043340000000     0.762450000000     0.772970000000    -0.035633   
C643     C      0.019720000000     0.750660000000     0.758530000000    -0.0365218  
C644     C      0.086460000000     0.798100000000     0.775780000000     0.0510468  
C645     C      0.099080000000     0.823300000000     0.783290000000    -0.0976519  
C646     C      0.123190000000     0.834540000000     0.795930000000     0.0767266  
C647     C      0.122570000000     0.796500000000     0.794290000000     0.0769481  
C648     C      0.098440000000     0.784670000000     0.781770000000    -0.0978478  
H1       H      0.800980000000     0.115590000000     0.690390000000     0.0214348  
H2       H      0.780480000000     0.073830000000     0.712300000000     0.0516839  
H3       H      0.849410000000     0.074360000000     0.709790000000     0.0513859  
H4       H      0.869520000000     0.116340000000     0.688250000000     0.0212739  
H5       H      0.768560000000     0.031940000000     0.694410000000     0.0361161  
H6       H      0.747650000000     0.990680000000     0.719320000000     0.0360666  
H7       H      0.808920000000     0.010730000000     0.789640000000     0.0357996  
H8       H      0.829910000000     0.052000000000     0.764490000000     0.0360771  
H9       H      0.727690000000     0.969450000000     0.772950000000     0.0515546  
H10      H      0.706350000000     0.927900000000     0.795630000000     0.0214196  
H11      H      0.773980000000     0.926890000000     0.799350000000     0.0213452  
H12      H      0.795790000000     0.968300000000     0.775900000000     0.0512741  
H13      H      0.033460000000     0.448620000000     0.524630000000     0.0215695  
H14      H      0.011920000000     0.406920000000     0.546690000000     0.0514417  
H15      H      0.943880000000     0.408120000000     0.543120000000     0.051078   
H16      H      0.966030000000     0.450060000000     0.521450000000     0.0213141  
H17      H      0.981920000000     0.365100000000     0.529000000000     0.0356496  
H18      H      0.961380000000     0.323940000000     0.554250000000     0.0357798  
H19      H      0.920120000000     0.344590000000     0.623440000000     0.0356767  
H20      H      0.940610000000     0.385780000000     0.597980000000     0.0359761  
H21      H      0.959940000000     0.303000000000     0.608390000000     0.0512078  
H22      H      0.939600000000     0.261480000000     0.631190000000     0.0211581  
H23      H      0.871040000000     0.260680000000     0.633370000000     0.0213267  
H24      H      0.890790000000     0.302080000000     0.609810000000     0.0512535  
H25      H      0.136520000000     0.782380000000     0.357710000000     0.0213759  
H26      H      0.115980000000     0.740910000000     0.380710000000     0.0514852  
H27      H      0.184930000000     0.741410000000     0.379500000000     0.0513202  
H28      H      0.204870000000     0.782760000000     0.355750000000     0.0213454  
H29      H      0.114390000000     0.719980000000     0.434930000000     0.0360744  
H30      H      0.093750000000     0.678880000000     0.460410000000     0.0360868  
H31      H      0.134890000000     0.657850000000     0.391690000000     0.0361241  
H32      H      0.155470000000     0.698950000000     0.366000000000     0.035812   
H33      H      0.063670000000     0.636990000000     0.443060000000     0.0515849  
H34      H      0.042130000000     0.595340000000     0.465340000000     0.0214549  
H35      H      0.109530000000     0.593860000000     0.468640000000     0.0213694  
H36      H      0.131690000000     0.635730000000     0.446750000000     0.051467   
H37      H      0.604710000000     0.594980000000     0.965350000000     0.0213319  
H38      H      0.625160000000     0.636680000000     0.943170000000     0.0514917  
H39      H      0.556260000000     0.636210000000     0.946120000000     0.0513661  
H40      H      0.536220000000     0.594310000000     0.967940000000     0.0213423  
H41      H      0.637160000000     0.678690000000     0.960700000000     0.0360269  
H42      H      0.657920000000     0.719840000000     0.935400000000     0.0361017  
H43      H      0.596340000000     0.699400000000     0.865540000000     0.0357997  
H44      H      0.575490000000     0.658260000000     0.891100000000     0.0361192  
H45      H      0.677640000000     0.740810000000     0.881560000000     0.0514525  
H46      H      0.698880000000     0.782270000000     0.858570000000     0.0213633  
H47      H      0.631220000000     0.783220000000     0.855050000000     0.0212995  
H48      H      0.609500000000     0.741890000000     0.878820000000     0.0513152  
H49      H      0.300800000000     0.115330000000     0.186850000000     0.0213493  
H50      H      0.279570000000     0.073580000000     0.209130000000     0.0514797  
H51      H      0.348830000000     0.075010000000     0.215980000000     0.0518139  
H52      H      0.369510000000     0.116640000000     0.193320000000     0.0214976  
H53      H      0.276560000000     0.052140000000     0.264980000000     0.0361925  
H54      H      0.256170000000     0.010900000000     0.290160000000     0.0359084  
H55      H      0.299150000000     0.991280000000     0.222850000000     0.0360959  
H56      H      0.319700000000     0.032580000000     0.198010000000     0.036194   
H57      H      0.227360000000     0.968700000000     0.275850000000     0.0514126  
H58      H      0.207250000000     0.927180000000     0.298870000000     0.0213652  
H59      H      0.275740000000     0.927810000000     0.298450000000     0.0214495  
H60      H      0.296470000000     0.969500000000     0.276310000000     0.0515286  
H61      H      0.534370000000     0.449740000000     0.022050000000     0.0213794  
H62      H      0.514410000000     0.408120000000     0.044760000000     0.0512702  
H63      H      0.445290000000     0.407280000000     0.045690000000     0.0516112  
H64      H      0.465860000000     0.449030000000     0.023780000000     0.0214334  
H65      H      0.485330000000     0.365880000000     0.030160000000     0.0358931  
H66      H      0.465060000000     0.324570000000     0.055100000000     0.0361691  
H67      H      0.422800000000     0.344180000000     0.123850000000     0.0361163  
H68      H      0.443170000000     0.385520000000     0.099150000000     0.0360687  
H69      H      0.462490000000     0.302810000000     0.110170000000     0.051477   
H70      H      0.441370000000     0.261030000000     0.132310000000     0.0213222  
H71      H      0.372840000000     0.260270000000     0.128980000000     0.0214849  
H72      H      0.393400000000     0.301920000000     0.106410000000     0.0517156  
H73      H      0.666830000000     0.844010000000     0.717770000000     0.0212716  
H74      H      0.667910000000     0.841520000000     0.654080000000     0.0522335  
H75      H      0.730960000000     0.831780000000     0.662270000000     0.0521009  
H76      H      0.729790000000     0.834820000000     0.726010000000     0.0211657  
H77      H      0.702040000000     0.872010000000     0.609510000000     0.0371019  
H78      H      0.706180000000     0.874160000000     0.545390000000     0.037092   
H79      H      0.706060000000     0.805360000000     0.545070000000     0.0362761  
H80      H      0.702340000000     0.803410000000     0.609590000000     0.0362838  
H81      H      0.740300000000     0.877930000000     0.500720000000     0.0523334  
H82      H      0.741360000000     0.881600000000     0.437030000000     0.0213083  
H83      H      0.678540000000     0.809510000000     0.428760000000     0.0211517  
H84      H      0.677380000000     0.805200000000     0.492500000000     0.0520277  
H85      H      0.733450000000     0.904290000000     0.226670000000     0.021151   
H86      H      0.733670000000     0.909590000000     0.163540000000     0.0510508  
H87      H      0.669890000000     0.837190000000     0.154990000000     0.0514381  
H88      H      0.669580000000     0.832980000000     0.218230000000     0.0213598  
H89      H      0.742990000000     0.895450000000     0.111750000000     0.0357207  
H90      H      0.744990000000     0.897270000000     0.047900000000     0.0355308  
H91      H      0.665640000000     0.856870000000     0.042780000000     0.0357297  
H92      H      0.663640000000     0.856700000000     0.106620000000     0.0355423  
H93      H      0.738740000000     0.871530000000     0.999610000000     0.0513668  
H94      H      0.738990000000     0.867550000000     0.936390000000     0.0212844  
H95      H      0.675140000000     0.875140000000     0.927820000000     0.0212176  
H96      H      0.674970000000     0.880300000000     0.990920000000     0.0511048  
H97      H      0.777250000000     0.856290000000     0.300130000000     0.0212321  
H98      H      0.798950000000     0.836630000000     0.276350000000     0.0512569  
H99      H      0.730770000000     0.767590000000     0.273670000000     0.0515064  
H100     H      0.709570000000     0.787840000000     0.296680000000     0.0213898  
H101     H      0.811990000000     0.807060000000     0.289600000000     0.035754   
H102     H      0.832610000000     0.786500000000     0.264080000000     0.0360365  
H103     H      0.770950000000     0.745920000000     0.194290000000     0.0359852  
H104     H      0.750420000000     0.766540000000     0.219570000000     0.0361687  
H105     H      0.851770000000     0.783350000000     0.209140000000     0.0513825  
H106     H      0.871390000000     0.760990000000     0.187630000000     0.0212547  
H107     H      0.802430000000     0.693810000000     0.190350000000     0.0213568  
H108     H      0.782410000000     0.715560000000     0.212230000000     0.0515188  
H109     H      0.701880000000     0.926040000000     0.357990000000     0.0213306  
H110     H      0.680380000000     0.946290000000     0.380120000000     0.0515944  
H111     H      0.612280000000     0.877250000000     0.376460000000     0.0515082  
H112     H      0.634340000000     0.857420000000     0.354650000000     0.0213294  
H113     H      0.650050000000     0.958000000000     0.361950000000     0.0361179  
H114     H      0.629210000000     0.978450000000     0.386840000000     0.0361059  
H115     H      0.588720000000     0.916930000000     0.457010000000     0.0357399  
H116     H      0.609430000000     0.896390000000     0.431790000000     0.036152   
H117     H      0.627450000000     0.998220000000     0.440120000000     0.0514185  
H118     H      0.606650000000     0.019020000000     0.462660000000     0.0214129  
H119     H      0.538850000000     0.950720000000     0.466860000000     0.0212607  
H120     H      0.559010000000     0.929440000000     0.443470000000     0.0513235  
H121     H      0.001490000000     0.496440000000     0.886440000000     0.0213723  
H122     H      0.001970000000     0.499470000000     0.822690000000     0.0524032  
H123     H      0.064440000000     0.572600000000     0.829180000000     0.0521841  
H124     H      0.063870000000     0.568950000000     0.892960000000     0.0211862  
H125     H      0.035490000000     0.503030000000     0.777490000000     0.0371452  
H126     H      0.039160000000     0.504680000000     0.713310000000     0.0371635  
H127     H      0.038840000000     0.573270000000     0.712490000000     0.0363802  
H128     H      0.035560000000     0.571810000000     0.777030000000     0.0363471  
H129     H      0.072730000000     0.534480000000     0.667990000000     0.0524196  
H130     H      0.073470000000     0.531870000000     0.604280000000     0.0213568  
H131     H      0.010920000000     0.541780000000     0.596760000000     0.021274   
H132     H      0.010080000000     0.544920000000     0.660500000000     0.0522424  
H133     H      0.074420000000     0.548570000000     0.103770000000     0.0212578  
H134     H      0.073940000000     0.545420000000     0.167510000000     0.0522695  
H135     H      0.011600000000     0.472220000000     0.160790000000     0.0523351  
H136     H      0.012180000000     0.476000000000     0.097030000000     0.02139    
H137     H      0.040430000000     0.541680000000     0.212850000000     0.0371309  
H138     H      0.036670000000     0.539800000000     0.277020000000     0.037173   
H139     H      0.037070000000     0.471250000000     0.277330000000     0.0363676  
H140     H      0.040450000000     0.472940000000     0.212800000000     0.0363918  
H141     H      0.003020000000     0.509810000000     0.322090000000     0.0525794  
H142     H      0.002150000000     0.512190000000     0.385820000000     0.0214766  
H143     H      0.064710000000     0.502300000000     0.393310000000     0.021158   
H144     H      0.065690000000     0.499390000000     0.329550000000     0.0520548  
H145     H      0.940040000000     0.684260000000     0.132390000000     0.0212422  
H146     H      0.960100000000     0.662560000000     0.110560000000     0.0513622  
H147     H      0.890850000000     0.594660000000     0.114040000000     0.0514013  
H148     H      0.871160000000     0.617000000000     0.135460000000     0.021323   
H149     H      0.971800000000     0.632480000000     0.128470000000     0.0357465  
H150     H      0.992500000000     0.612050000000     0.103100000000     0.0357226  
H151     H      0.930680000000     0.570860000000     0.033760000000     0.0358354  
H152     H      0.909910000000     0.591270000000     0.059300000000     0.0359923  
H153     H      0.011920000000     0.611150000000     0.048500000000     0.0513343  
H154     H      0.033390000000     0.591220000000     0.025330000000     0.0215955  
H155     H      0.966210000000     0.522240000000     0.023340000000     0.0212945  
H156     H      0.944250000000     0.541600000000     0.047240000000     0.050947   
H157     H      0.342460000000     0.142150000000     0.759720000000     0.0211252  
H158     H      0.341440000000     0.135770000000     0.822720000000     0.0509352  
H159     H      0.406280000000     0.207210000000     0.833730000000     0.0514033  
H160     H      0.407380000000     0.212420000000     0.770690000000     0.0214716  
H161     H      0.332270000000     0.149150000000     0.875180000000     0.0356058  
H162     H      0.329810000000     0.146670000000     0.938960000000     0.0355165  
H163     H      0.409130000000     0.186160000000     0.945210000000     0.0356142  
H164     H      0.411560000000     0.186850000000     0.881450000000     0.0354246  
H165     H      0.335760000000     0.171750000000     0.987580000000     0.0511828  
H166     H      0.335200000000     0.175630000000     0.050740000000     0.0215558  
H167     H      0.399090000000     0.168170000000     0.060060000000     0.0212203  
H168     H      0.399510000000     0.162990000000     0.996980000000     0.050737   
H169     H      0.412530000000     0.212630000000     0.266630000000     0.0210812  
H170     H      0.413750000000     0.218290000000     0.329640000000     0.0508758  
H171     H      0.337900000000     0.200760000000     0.327020000000     0.0508202  
H172     H      0.337970000000     0.196950000000     0.263820000000     0.0211153  
H173     H      0.400710000000     0.196640000000     0.381200000000     0.0358082  
H174     H      0.399650000000     0.197340000000     0.445220000000     0.0376283  
H175     H      0.347910000000     0.223390000000     0.441260000000     0.0368537  
H176     H      0.350060000000     0.224510000000     0.376970000000     0.0352158  
H177     H      0.409450000000     0.238540000000     0.494730000000     0.0526179  
H178     H      0.407940000000     0.234090000000     0.558440000000     0.0211559  
H179     H      0.333770000000     0.174650000000     0.551810000000     0.021243   
H180     H      0.334650000000     0.179310000000     0.488050000000     0.0528759  
H181     H      0.373670000000     0.120440000000     0.627990000000     0.0214565  
H182     H      0.394120000000     0.099130000000     0.605680000000     0.051792   
H183     H      0.463700000000     0.166400000000     0.612960000000     0.0514861  
H184     H      0.442740000000     0.187280000000     0.635010000000     0.0211893  
H185     H      0.423350000000     0.085620000000     0.624450000000     0.0361832  
H186     H      0.443770000000     0.064650000000     0.599830000000     0.0360826  
H187     H      0.486300000000     0.126710000000     0.531360000000     0.0357232  
H188     H      0.466120000000     0.147790000000     0.556470000000     0.0360467  
H189     H      0.446420000000     0.045070000000     0.547270000000     0.0514676  
H190     H      0.467230000000     0.024130000000     0.525260000000     0.02144    
H191     H      0.535290000000     0.092210000000     0.522260000000     0.0213047  
H192     H      0.515170000000     0.113600000000     0.545240000000     0.0512315  
H193     H      0.138680000000     0.362800000000     0.856890000000     0.0214945  
H194     H      0.117850000000     0.383590000000     0.879400000000     0.0517868  
H195     H      0.186070000000     0.452490000000     0.875260000000     0.0515098  
H196     H      0.206530000000     0.431100000000     0.853120000000     0.0212438  
H197     H      0.105050000000     0.413030000000     0.861940000000     0.0360881  
H198     H      0.083880000000     0.432920000000     0.887550000000     0.0360996  
H199     H      0.145780000000     0.474940000000     0.956430000000     0.0358492  
H200     H      0.167030000000     0.455120000000     0.930590000000     0.0361123  
H201     H      0.064390000000     0.434020000000     0.941810000000     0.0516452  
H202     H      0.042760000000     0.453840000000     0.964830000000     0.0213841  
H203     H      0.109780000000     0.522950000000     0.966810000000     0.0213365  
H204     H      0.131880000000     0.503740000000     0.943010000000     0.0513381  
H205     H      0.302750000000     0.194400000000     0.686430000000     0.0213274  
H206     H      0.281860000000     0.215280000000     0.708620000000     0.0515555  
H207     H      0.351330000000     0.282820000000     0.714080000000     0.0517219  
H208     H      0.371700000000     0.261500000000     0.691540000000     0.0214302  
H209     H      0.279570000000     0.234090000000     0.764540000000     0.0362197  
H210     H      0.259360000000     0.255110000000     0.789720000000     0.035856   
H211     H      0.301650000000     0.317130000000     0.721090000000     0.0359716  
H212     H      0.322030000000     0.296180000000     0.696280000000     0.0361121  
H213     H      0.230320000000     0.268160000000     0.775390000000     0.0513953  
H214     H      0.210130000000     0.289510000000     0.798280000000     0.0213711  
H215     H      0.278280000000     0.357540000000     0.796150000000     0.0213291  
H216     H      0.299120000000     0.336630000000     0.774140000000     0.0514841  
H217     H      0.489080000000     0.502830000000     0.892540000000     0.0211579  
H218     H      0.485440000000     0.499930000000     0.828720000000     0.0520927  
H219     H      0.558120000000     0.509290000000     0.822280000000     0.0523326  
H220     H      0.561120000000     0.511640000000     0.886020000000     0.0213263  
H221     H      0.486050000000     0.471380000000     0.776560000000     0.036349   
H222     H      0.484850000000     0.473150000000     0.711960000000     0.0363095  
H223     H      0.553490000000     0.541840000000     0.712960000000     0.0371132  
H224     H      0.554910000000     0.539850000000     0.777180000000     0.0371156  
H225     H      0.513750000000     0.472640000000     0.660530000000     0.0521168  
H226     H      0.517360000000     0.476570000000     0.596800000000     0.0211487  
H227     H      0.526800000000     0.548870000000     0.603380000000     0.0212715  
H228     H      0.523730000000     0.545570000000     0.667070000000     0.0523229  
H229     H      0.581950000000     0.541780000000     0.096500000000     0.0211819  
H230     H      0.586040000000     0.545020000000     0.160200000000     0.0521204  
H231     H      0.513080000000     0.534840000000     0.167660000000     0.0523553  
H232     H      0.509620000000     0.532130000000     0.103930000000     0.0212611  
H233     H      0.516990000000     0.505060000000     0.213200000000     0.037036   
H234     H      0.519340000000     0.503450000000     0.277370000000     0.03709    
H235     H      0.587930000000     0.572180000000     0.276460000000     0.0363147  
H236     H      0.585790000000     0.573590000000     0.211950000000     0.0362475  
H237     H      0.549750000000     0.499940000000     0.322210000000     0.0522948  
H238     H      0.547670000000     0.496990000000     0.385990000000     0.021284   
H239     H      0.557390000000     0.569400000000     0.392680000000     0.0211478  
H240     H      0.560020000000     0.572980000000     0.328880000000     0.052126   
H241     H      0.916820000000     0.208400000000     0.762980000000     0.0210279  
H242     H      0.920700000000     0.211560000000     0.826730000000     0.0519577  
H243     H      0.847790000000     0.201540000000     0.833670000000     0.0523236  
H244     H      0.844530000000     0.198920000000     0.769930000000     0.0212632  
H245     H      0.920240000000     0.240070000000     0.878610000000     0.0361008  
H246     H      0.922010000000     0.238500000000     0.943160000000     0.0361656  
H247     H      0.853440000000     0.169740000000     0.943270000000     0.0371422  
H248     H      0.851470000000     0.171510000000     0.879080000000     0.0370971  
H249     H      0.893690000000     0.239110000000     0.995240000000     0.0518346  
H250     H      0.890740000000     0.235360000000     0.059010000000     0.0211405  
H251     H      0.881250000000     0.163050000000     0.052220000000     0.0213321  
H252     H      0.883660000000     0.166170000000     0.988470000000     0.0520324  
H253     H      0.860660000000     0.214820000000     0.269860000000     0.0212163  
H254     H      0.857930000000     0.211580000000     0.333590000000     0.0522554  
H255     H      0.847950000000     0.138650000000     0.326810000000     0.0520739  
H256     H      0.851210000000     0.142530000000     0.263070000000     0.0211457  
H257     H      0.819320000000     0.139170000000     0.378580000000     0.0362834  
H258     H      0.820800000000     0.137450000000     0.443150000000     0.0362901  
H259     H      0.889600000000     0.205980000000     0.443310000000     0.0369317  
H260     H      0.887920000000     0.207900000000     0.379110000000     0.0369288  
H261     H      0.820220000000     0.165920000000     0.495190000000     0.0521139  
H262     H      0.823960000000     0.168940000000     0.558970000000     0.0211731  
H263     H      0.896150000000     0.178150000000     0.552290000000     0.0211486  
H264     H      0.893040000000     0.175680000000     0.488550000000     0.0522742  
H265     H      0.232890000000     0.396010000000     0.716680000000     0.0212449  
H266     H      0.229080000000     0.395020000000     0.653000000000     0.0523084  
H267     H      0.156630000000     0.331700000000     0.661330000000     0.0522143  
H268     H      0.161070000000     0.332780000000     0.725020000000     0.0212402  
H269     H      0.156350000000     0.360320000000     0.609080000000     0.0363383  
H270     H      0.154110000000     0.356450000000     0.544580000000     0.036352   
H271     H      0.222990000000     0.356760000000     0.543920000000     0.0371717  
H272     H      0.225460000000     0.361070000000     0.608020000000     0.0370952  
H273     H      0.182160000000     0.385060000000     0.491520000000     0.0520985  
H274     H      0.184780000000     0.383600000000     0.427750000000     0.0211253  
H275     H      0.194290000000     0.320830000000     0.436130000000     0.0213458  
H276     H      0.192230000000     0.322210000000     0.499840000000     0.0524118  
H277     H      0.216800000000     0.392310000000     0.217160000000     0.0214214  
H278     H      0.221210000000     0.392240000000     0.154010000000     0.051497   
H279     H      0.230540000000     0.328810000000     0.162980000000     0.0510827  
H280     H      0.224910000000     0.328750000000     0.225990000000     0.0211725  
H281     H      0.247320000000     0.398900000000     0.106160000000     0.0355053  
H282     H      0.245970000000     0.397110000000     0.042300000000     0.0356922  
H283     H      0.208030000000     0.317750000000     0.046890000000     0.0355781  
H284     H      0.207670000000     0.319500000000     0.110700000000     0.0356567  
H285     H      0.260540000000     0.388280000000     0.990560000000     0.0510877  
H286     H      0.255440000000     0.388190000000     0.927370000000     0.0211224  
H287     H      0.184610000000     0.323620000000     0.935160000000     0.0214095  
H288     H      0.188590000000     0.323790000000     0.998400000000     0.051525   
H289     H      0.132650000000     0.284540000000     0.299920000000     0.0213655  
H290     H      0.090720000000     0.262480000000     0.278240000000     0.0515304  
H291     H      0.089970000000     0.330750000000     0.273680000000     0.0516933  
H292     H      0.131680000000     0.352200000000     0.295740000000     0.0214632  
H293     H      0.068290000000     0.259020000000     0.223330000000     0.0361123  
H294     H      0.027020000000     0.238500000000     0.198190000000     0.0364483  
H295     H      0.006870000000     0.280410000000     0.266890000000     0.0366244  
H296     H      0.048130000000     0.300990000000     0.291780000000     0.0360009  
H297     H      0.984570000000     0.209390000000     0.212050000000     0.0507007  
H298     H      0.943110000000     0.189610000000     0.188780000000     0.0213128  
H299     H      0.944060000000     0.258260000000     0.190550000000     0.0213385  
H300     H      0.985640000000     0.278640000000     0.213030000000     0.0507122  
H301     H      0.277640000000     0.360110000000     0.357640000000     0.0213689  
H302     H      0.319250000000     0.381560000000     0.380060000000     0.0515956  
H303     H      0.318440000000     0.449800000000     0.375470000000     0.0513872  
H304     H      0.276600000000     0.427740000000     0.353450000000     0.0213616  
H305     H      0.361170000000     0.411380000000     0.362460000000     0.0360052  
H306     H      0.402280000000     0.431940000000     0.387840000000     0.0360771  
H307     H      0.381710000000     0.473660000000     0.456200000000     0.0358374  
H308     H      0.340580000000     0.453170000000     0.430590000000     0.0360803  
H309     H      0.423110000000     0.433550000000     0.442080000000     0.0515256  
H310     H      0.464580000000     0.453850000000     0.465000000000     0.0213868  
H311     H      0.465630000000     0.522550000000     0.466460000000     0.0213264  
H312     H      0.424270000000     0.502830000000     0.442750000000     0.0513128  
H313     H      0.557970000000     0.993430000000     0.894330000000     0.0211974  
H314     H      0.563080000000     0.992860000000     0.831240000000     0.0510512  
H315     H      0.554550000000     0.056730000000     0.821510000000     0.0513333  
H316     H      0.550670000000     0.057410000000     0.884660000000     0.0213562  
H317     H      0.539760000000     0.983260000000     0.779360000000     0.0356542  
H318     H      0.539220000000     0.980840000000     0.715560000000     0.0355196  
H319     H      0.577670000000     0.060170000000     0.709370000000     0.0356568  
H320     H      0.579930000000     0.062590000000     0.773150000000     0.0354995  
H321     H      0.519340000000     0.986510000000     0.667370000000     0.0513692  
H322     H      0.514510000000     0.985790000000     0.604230000000     0.021335   
H323     H      0.585320000000     0.050140000000     0.594310000000     0.0211768  
H324     H      0.591280000000     0.050760000000     0.657340000000     0.0510294  
H325     H      0.559500000000     0.057270000000     0.384550000000     0.0213478  
H326     H      0.554870000000     0.056500000000     0.321380000000     0.0513577  
H327     H      0.483050000000     0.992030000000     0.331080000000     0.0510049  
H328     H      0.488820000000     0.992700000000     0.394180000000     0.0212178  
H329     H      0.535050000000     0.062030000000     0.273020000000     0.0355001  
H330     H      0.534820000000     0.059630000000     0.209240000000     0.0357219  
H331     H      0.495010000000     0.980300000000     0.215400000000     0.0355126  
H332     H      0.496960000000     0.982710000000     0.279200000000     0.0356761  
H333     H      0.511720000000     0.049960000000     0.157190000000     0.0510307  
H334     H      0.517100000000     0.049460000000     0.094170000000     0.021217   
H335     H      0.524710000000     0.985680000000     0.104100000000     0.0214102  
H336     H      0.520580000000     0.986290000000     0.167230000000     0.0513036  
H337     H      0.798890000000     0.188280000000     0.133790000000     0.0213402  
H338     H      0.756910000000     0.168220000000     0.112280000000     0.0514294  
H339     H      0.756200000000     0.099180000000     0.110060000000     0.0516401  
H340     H      0.797970000000     0.119650000000     0.131910000000     0.0214462  
H341     H      0.734530000000     0.148620000000     0.057560000000     0.0361094  
H342     H      0.693260000000     0.127660000000     0.032430000000     0.0358414  
H343     H      0.673050000000     0.066560000000     0.103190000000     0.0362213  
H344     H      0.714320000000     0.087430000000     0.128040000000     0.0361117  
H345     H      0.650890000000     0.114680000000     0.045830000000     0.0513045  
H346     H      0.609530000000     0.092890000000     0.022230000000     0.0212916  
H347     H      0.610230000000     0.025120000000     0.027010000000     0.0215397  
H348     H      0.651730000000     0.046430000000     0.049830000000     0.0516192  
H349     H      0.214530000000     0.828640000000     0.718550000000     0.02134    
H350     H      0.217420000000     0.832020000000     0.654850000000     0.0524216  
H351     H      0.227600000000     0.905010000000     0.661830000000     0.0521567  
H352     H      0.224170000000     0.901010000000     0.725560000000     0.0211426  
H353     H      0.187600000000     0.835960000000     0.609190000000     0.0371245  
H354     H      0.186200000000     0.837980000000     0.544970000000     0.037098   
H355     H      0.255260000000     0.906250000000     0.545620000000     0.0363668  
H356     H      0.256440000000     0.904440000000     0.610220000000     0.0363448  
H357     H      0.183210000000     0.868540000000     0.499660000000     0.0523176  
H358     H      0.180280000000     0.866020000000     0.435920000000     0.0212906  
H359     H      0.252220000000     0.874540000000     0.429840000000     0.021199   
H360     H      0.255780000000     0.877600000000     0.493640000000     0.0522471  
H361     H      0.184870000000     0.808010000000     0.929440000000     0.0211279  
H362     H      0.182180000000     0.804220000000     0.993220000000     0.0520801  
H363     H      0.192690000000     0.877340000000     0.000420000000     0.0526684  
H364     H      0.194840000000     0.880490000000     0.936650000000     0.0212803  
H365     H      0.154130000000     0.804950000000     0.045560000000     0.036365   
H366     H      0.156020000000     0.803310000000     0.110080000000     0.036338   
H367     H      0.225000000000     0.871660000000     0.109500000000     0.0371073  
H368     H      0.222910000000     0.873510000000     0.045330000000     0.0371286  
H369     H      0.228550000000     0.841650000000     0.155010000000     0.0522966  
H370     H      0.231800000000     0.844310000000     0.218760000000     0.0212072  
H371     H      0.159580000000     0.835010000000     0.225600000000     0.0212339  
H372     H      0.155700000000     0.831810000000     0.161880000000     0.0522218  
H373     H      0.277690000000     0.923660000000     0.856270000000     0.0214086  
H374     H      0.319470000000     0.944010000000     0.878050000000     0.0516812  
H375     H      0.318510000000     0.874860000000     0.875810000000     0.0514258  
H376     H      0.276510000000     0.854900000000     0.854350000000     0.0213254  
H377     H      0.361300000000     0.955640000000     0.860060000000     0.0361418  
H378     H      0.402530000000     0.976480000000     0.885070000000     0.0361677  
H379     H      0.382130000000     0.915360000000     0.955860000000     0.0357656  
H380     H      0.340910000000     0.894430000000     0.930580000000     0.0360884  
H381     H      0.423700000000     0.996590000000     0.938540000000     0.0515433  
H382     H      0.465150000000     0.017900000000     0.961520000000     0.0214548  
H383     H      0.465850000000     0.950130000000     0.966440000000     0.021277   
H384     H      0.424540000000     0.928340000000     0.942670000000     0.0512467  
H385     H      0.850930000000     0.715360000000     0.763430000000     0.021177   
H386     H      0.847870000000     0.715970000000     0.827190000000     0.0521379  
H387     H      0.857570000000     0.652820000000     0.833830000000     0.0521556  
H388     H      0.860100000000     0.652310000000     0.770090000000     0.0211792  
H389     H      0.819530000000     0.687180000000     0.879250000000     0.0362608  
H390     H      0.821370000000     0.690480000000     0.943800000000     0.0362757  
H391     H      0.889840000000     0.689960000000     0.943260000000     0.0369754  
H392     H      0.887800000000     0.686260000000     0.879080000000     0.0369203  
H393     H      0.820710000000     0.661480000000     0.995850000000     0.0517825  
H394     H      0.824670000000     0.662330000000     0.059590000000     0.0211889  
H395     H      0.897220000000     0.724550000000     0.052220000000     0.0213008  
H396     H      0.893880000000     0.723800000000     0.988480000000     0.0520251  
H397     H      0.891020000000     0.662590000000     0.559510000000     0.0210696  
H398     H      0.894210000000     0.662030000000     0.495760000000     0.05201    
H399     H      0.884490000000     0.725170000000     0.489070000000     0.0521353  
H400     H      0.881830000000     0.725620000000     0.552800000000     0.021156   
H401     H      0.922650000000     0.690870000000     0.443830000000     0.0361272  
H402     H      0.920940000000     0.687590000000     0.379280000000     0.0360834  
H403     H      0.852460000000     0.688110000000     0.379500000000     0.0370381  
H404     H      0.854380000000     0.691790000000     0.443680000000     0.037047   
H405     H      0.921650000000     0.716580000000     0.327120000000     0.0519967  
H406     H      0.917770000000     0.715710000000     0.263360000000     0.0209781  
H407     H      0.845240000000     0.653450000000     0.270650000000     0.0213069  
H408     H      0.848500000000     0.654240000000     0.334390000000     0.0523901  
H409     H      0.610570000000     0.592200000000     0.524770000000     0.0213926  
H410     H      0.652260000000     0.612490000000     0.546960000000     0.0514892  
H411     H      0.651490000000     0.543440000000     0.543820000000     0.0514333  
H412     H      0.609590000000     0.523540000000     0.522050000000     0.0213485  
H413     H      0.694140000000     0.624470000000     0.529480000000     0.0359959  
H414     H      0.735370000000     0.645080000000     0.554500000000     0.0359715  
H415     H      0.715060000000     0.583200000000     0.623720000000     0.0358126  
H416     H      0.673820000000     0.562530000000     0.598500000000     0.0360948  
H417     H      0.756590000000     0.664550000000     0.608410000000     0.0514539  
H418     H      0.798140000000     0.685600000000     0.631080000000     0.021366   
H419     H      0.798920000000     0.617820000000     0.633230000000     0.0213487  
H420     H      0.757490000000     0.596300000000     0.609810000000     0.0512944  
H421     H      0.942940000000     0.760070000000     0.689770000000     0.0213093  
H422     H      0.984340000000     0.781580000000     0.713310000000     0.0506581  
H423     H      0.985250000000     0.713320000000     0.714590000000     0.0507265  
H424     H      0.943740000000     0.692300000000     0.691820000000     0.0212149  
H425     H      0.026790000000     0.794710000000     0.699520000000     0.0363957  
H426     H      0.068020000000     0.815320000000     0.724800000000     0.0360655  
H427     H      0.047610000000     0.753270000000     0.793640000000     0.0360215  
H428     H      0.006400000000     0.732720000000     0.768560000000     0.0366083  
H429     H      0.090380000000     0.834310000000     0.779530000000     0.0515661  
H430     H      0.132320000000     0.854120000000     0.801130000000     0.0213919  
H431     H      0.131200000000     0.785400000000     0.798040000000     0.021391   
H432     H      0.089470000000     0.765200000000     0.776030000000     0.0516249  
N1       N      0.836820000000     0.119190000000     0.687960000000    -0.208465   
N2       N      0.738500000000     0.924180000000     0.798860000000    -0.208303   
N3       N      0.001420000000     0.452560000000     0.521690000000    -0.207497   
N4       N      0.903750000000     0.257850000000     0.633610000000    -0.208495   
N5       N      0.172280000000     0.785790000000     0.355370000000    -0.208449   
N6       N      0.074150000000     0.591380000000     0.468350000000    -0.208444   
N7       N      0.568900000000     0.591420000000     0.968000000000    -0.208538   
N8       N      0.666710000000     0.785960000000     0.855430000000    -0.208443   
N9       N      0.336760000000     0.119190000000     0.188680000000    -0.208297   
N10      N      0.239900000000     0.924270000000     0.300000000000    -0.208475   
N11      N      0.501690000000     0.452620000000     0.021610000000    -0.208504   
N12      N      0.405510000000     0.257440000000     0.132060000000    -0.208452   
N13      N      0.698520000000     0.840090000000     0.726590000000    -0.208617   
N14      N      0.709750000000     0.846030000000     0.428190000000    -0.208608   
N15      N      0.701720000000     0.868120000000     0.227140000000    -0.208585   
N16      N      0.706860000000     0.870620000000     0.927420000000    -0.208602   
N17      N      0.741750000000     0.823640000000     0.299750000000    -0.208702   
N18      N      0.838450000000     0.725710000000     0.187660000000    -0.208651   
N19      N      0.669780000000     0.890180000000     0.354950000000    -0.208681   
N20      N      0.571150000000     0.986490000000     0.466120000000    -0.208558   
N21      N      0.032930000000     0.532270000000     0.894400000000    -0.20871    
N22      N      0.041990000000     0.536180000000     0.595820000000    -0.208726   
N23      N      0.043050000000     0.512710000000     0.095700000000    -0.208733   
N24      N      0.033630000000     0.507880000000     0.394270000000    -0.208746   
N25      N      0.904060000000     0.652310000000     0.135260000000    -0.20862    
N26      N      0.001480000000     0.555180000000     0.022990000000    -0.207615   
N27      N      0.374810000000     0.177860000000     0.760520000000    -0.208405   
N28      N      0.367350000000     0.172640000000     0.060090000000    -0.208378   
N29      N      0.375080000000     0.204030000000     0.260590000000    -0.208575   
N30      N      0.370880000000     0.203780000000     0.559810000000    -0.208526   
N31      N      0.406630000000     0.155490000000     0.632860000000    -0.208531   
N32      N      0.502850000000     0.056540000000     0.522390000000    -0.20855    
N33      N      0.174200000000     0.395340000000     0.853620000000    -0.208633   
N34      N      0.074570000000     0.489920000000     0.967170000000    -0.208642   
N35      N      0.338810000000     0.226310000000     0.687630000000    -0.208591   
N36      N      0.242610000000     0.325160000000     0.798560000000    -0.208637   
N37      N      0.525520000000     0.507870000000     0.893980000000    -0.208596   
N38      N      0.522760000000     0.513150000000     0.595400000000    -0.208779   
N39      N      0.545340000000     0.536300000000     0.095520000000    -0.208726   
N40      N      0.551890000000     0.532780000000     0.394040000000    -0.208714   
N41      N      0.880240000000     0.203010000000     0.761760000000    -0.208744   
N42      N      0.885350000000     0.198780000000     0.060320000000    -0.208679   
N43      N      0.856590000000     0.179110000000     0.261770000000    -0.208709   
N44      N      0.860480000000     0.174200000000     0.560330000000    -0.208748   
N45      N      0.197460000000     0.364200000000     0.725540000000    -0.208675   
N46      N      0.190180000000     0.352400000000     0.427230000000    -0.208631   
N47      N      0.220120000000     0.360320000000     0.226250000000    -0.208529   
N48      N      0.219530000000     0.356110000000     0.926580000000    -0.208659   
N49      N      0.135380000000     0.320040000000     0.299220000000    -0.2083     
N50      N      0.940350000000     0.222360000000     0.188340000000    -0.208147   
N51      N      0.273910000000     0.392260000000     0.354140000000    -0.208401   
N52      N      0.468330000000     0.489770000000     0.467080000000    -0.208395   
N53      N      0.553590000000     0.025240000000     0.894180000000    -0.208427   
N54      N      0.549350000000     0.018130000000     0.594590000000    -0.208529   
N55      N      0.524720000000     0.024820000000     0.394050000000    -0.208464   
N56      N      0.521650000000     0.017760000000     0.094460000000    -0.208387   
N57      N      0.801650000000     0.155530000000     0.134210000000    -0.208284   
N58      N      0.606670000000     0.057350000000     0.023220000000    -0.2083     
N59      N      0.218690000000     0.864390000000     0.726750000000    -0.208769   
N60      N      0.215830000000     0.869620000000     0.428180000000    -0.208805   
N61      N      0.190480000000     0.844680000000     0.928340000000    -0.208842   
N62      N      0.196130000000     0.840330000000     0.226870000000    -0.208795   
N63      N      0.273870000000     0.887720000000     0.853970000000    -0.208544   
N64      N      0.468720000000     0.985680000000     0.965390000000    -0.208481   
N65      N      0.856180000000     0.684070000000     0.762060000000    -0.208654   
N66      N      0.861380000000     0.693230000000     0.060610000000    -0.20871    
N67      N      0.885750000000     0.693860000000     0.560850000000    -0.20877    
N68      N      0.881070000000     0.684790000000     0.262300000000    -0.208873   
N69      N      0.606860000000     0.556310000000     0.522030000000    -0.208392   
N70      N      0.801760000000     0.653360000000     0.633520000000    -0.208307   
N71      N      0.940110000000     0.724540000000     0.689430000000    -0.208422   
N72      N      0.134980000000     0.821310000000     0.800940000000    -0.208448   
O1       O      0.879510000000     0.674290000000     0.614240000000    -0.557806   
O2       O      0.862890000000     0.668390000000     0.711210000000    -0.557879   
O3       O      0.837270000000     0.653880000000     0.650390000000    -0.556358   
O4       O      0.904910000000     0.688690000000     0.674920000000    -0.558284   
O5       O      0.904610000000     0.724020000000     0.672520000000    -0.556606   
O6       O      0.836960000000     0.689220000000     0.647980000000    -0.55781    
O7       O      0.862370000000     0.703620000000     0.708660000000    -0.557811   
O8       O      0.878990000000     0.709520000000     0.611690000000    -0.557923   
O9       O      0.212690000000     0.877700000000     0.780280000000    -0.55782    
O10      O      0.196910000000     0.867110000000     0.877540000000    -0.557862   
O11      O      0.238600000000     0.888570000000     0.840450000000    -0.558381   
O12      O      0.170760000000     0.856130000000     0.817190000000    -0.557045   
O13      O      0.170240000000     0.820400000000     0.814480000000    -0.557688   
O14      O      0.238080000000     0.852840000000     0.837890000000    -0.556668   
O15      O      0.196130000000     0.831250000000     0.874710000000    -0.55796    
O16      O      0.212000000000     0.841880000000     0.777510000000    -0.55812    
O17      O      0.546570000000     0.006200000000     0.948160000000    -0.55721    
O18      O      0.529130000000     0.001570000000     0.044730000000    -0.55676    
O19      O      0.504050000000     0.986350000000     0.983560000000    -0.556814   
O20      O      0.571490000000     0.021330000000     0.009190000000    -0.557318   
O21      O      0.571310000000     0.056680000000     0.005140000000    -0.556453   
O22      O      0.503880000000     0.021690000000     0.979470000000    -0.557971   
O23      O      0.528760000000     0.036820000000     0.040500000000    -0.557156   
O24      O      0.546250000000     0.041470000000     0.943960000000    -0.557136   
O25      O      0.196750000000     0.336160000000     0.376870000000    -0.558077   
O26      O      0.213260000000     0.341010000000     0.279960000000    -0.558066   
O27      O      0.238720000000     0.356160000000     0.340480000000    -0.557782   
O28      O      0.171040000000     0.320890000000     0.316190000000    -0.55648    
O29      O      0.170620000000     0.356140000000     0.312700000000    -0.557766   
O30      O      0.238270000000     0.391400000000     0.337090000000    -0.556449   
O31      O      0.212680000000     0.376180000000     0.276360000000    -0.557112   
O32      O      0.196070000000     0.371270000000     0.373300000000    -0.557267   
O33      O      0.879400000000     0.212170000000     0.113800000000    -0.557862   
O34      O      0.863260000000     0.201550000000     0.210930000000    -0.557858   
O35      O      0.905100000000     0.223130000000     0.174200000000    -0.558068   
O36      O      0.837340000000     0.190480000000     0.150390000000    -0.556706   
O37      O      0.836970000000     0.154810000000     0.147960000000    -0.557905   
O38      O      0.904750000000     0.187470000000     0.171740000000    -0.556226   
O39      O      0.862690000000     0.165780000000     0.208330000000    -0.557641   
O40      O      0.878810000000     0.176390000000     0.111180000000    -0.557649   
O41      O      0.546060000000     0.546260000000     0.447510000000    -0.558191   
O42      O      0.529670000000     0.535640000000     0.544550000000    -0.558085   
O43      O      0.571630000000     0.557160000000     0.508050000000    -0.55773    
O44      O      0.503920000000     0.524630000000     0.483850000000    -0.556625   
O45      O      0.503480000000     0.488930000000     0.481540000000    -0.558335   
O46      O      0.571180000000     0.521450000000     0.505620000000    -0.556936   
O47      O      0.529040000000     0.499840000000     0.542060000000    -0.55764    
O48      O      0.545370000000     0.510440000000     0.444960000000    -0.557827   
O49      O      0.196630000000     0.340030000000     0.876200000000    -0.557904   
O50      O      0.184850000000     0.345020000000     0.779290000000    -0.557882   
O51      O      0.207500000000     0.325360000000     0.815430000000    -0.557509   
O52      O      0.174070000000     0.359610000000     0.839910000000    -0.558547   
O53      O      0.209330000000     0.395180000000     0.836640000000    -0.557199   
O54      O      0.242800000000     0.360910000000     0.812430000000    -0.558212   
O55      O      0.220280000000     0.380420000000     0.775960000000    -0.557947   
O56      O      0.231940000000     0.375560000000     0.872950000000    -0.557726   
O57      O      0.391980000000     0.201590000000     0.711120000000    -0.558035   
O58      O      0.389530000000     0.214790000000     0.614110000000    -0.55822    
O59      O      0.374210000000     0.225630000000     0.674280000000    -0.557705   
O60      O      0.407250000000     0.190780000000     0.650900000000    -0.557642   
O61      O      0.371170000000     0.156290000000     0.645300000000    -0.557418   
O62      O      0.338200000000     0.190890000000     0.670360000000    -0.557867   
O63      O      0.353090000000     0.180610000000     0.609480000000    -0.556334   
O64      O      0.356270000000     0.166620000000     0.706100000000    -0.556561   
O65      O      0.058470000000     0.535220000000     0.044850000000    -0.558007   
O66      O      0.052380000000     0.545800000000     0.947820000000    -0.558081   
O67      O      0.037620000000     0.556420000000     0.008430000000    -0.558997   
O68      O      0.073360000000     0.524510000000     0.984090000000    -0.557668   
O69      O      0.038390000000     0.488620000000     0.981660000000    -0.558117   
O70      O      0.002620000000     0.520540000000     0.006060000000    -0.556187   
O71      O      0.017500000000     0.509820000000     0.945280000000    -0.557843   
O72      O      0.023610000000     0.499220000000     0.042290000000    -0.557544   
O73      O      0.720950000000     0.880600000000     0.280880000000    -0.558121   
O74      O      0.725860000000     0.868910000000     0.377820000000    -0.558028   
O75      O      0.741030000000     0.858410000000     0.317130000000    -0.556859   
O76      O      0.705860000000     0.890980000000     0.341380000000    -0.558156   
O77      O      0.670620000000     0.855390000000     0.338120000000    -0.557442   
O78      O      0.705760000000     0.822860000000     0.313730000000    -0.558845   
O79      O      0.690740000000     0.833210000000     0.374340000000    -0.557346   
O80      O      0.685750000000     0.844980000000     0.277380000000    -0.557298   
O81      O      0.847980000000     0.674150000000     0.114280000000    -0.558092   
O82      O      0.858560000000     0.668950000000     0.211570000000    -0.557928   
O83      O      0.837300000000     0.689430000000     0.174340000000    -0.558547   
O84      O      0.869350000000     0.653560000000     0.151350000000    -0.557004   
O85      O      0.905180000000     0.688580000000     0.148550000000    -0.558922   
O86      O      0.873140000000     0.724440000000     0.171550000000    -0.557274   
O87      O      0.894500000000     0.703850000000     0.208630000000    -0.558004   
O88      O      0.883920000000     0.709050000000     0.111330000000    -0.558112   
O89      O      0.512940000000     0.005800000000     0.448060000000    -0.557134   
O90      O      0.525820000000     0.001640000000     0.544800000000    -0.557159   
O91      O      0.502690000000     0.020770000000     0.508800000000    -0.557746   
O92      O      0.536140000000     0.986590000000     0.483890000000    -0.557091   
O93      O      0.571270000000     0.022220000000     0.479820000000    -0.558558   
O94      O      0.537860000000     0.056390000000     0.504840000000    -0.557465   
O95      O      0.561060000000     0.037160000000     0.540590000000    -0.557684   
O96      O      0.548150000000     0.041360000000     0.443900000000    -0.557537   
O97      O      0.386540000000     0.179740000000     0.113950000000    -0.55718    
O98      O      0.391640000000     0.197750000000     0.210340000000    -0.556892   
O99      O      0.372350000000     0.155040000000     0.175270000000    -0.557075   
O100     O      0.405790000000     0.222370000000     0.149000000000    -0.557536   
O101     O      0.370020000000     0.221780000000     0.146460000000    -0.557285   
O102     O      0.336470000000     0.154070000000     0.170680000000    -0.557572   
O103     O      0.355330000000     0.195980000000     0.207070000000    -0.557565   
O104     O      0.351130000000     0.179790000000     0.110040000000    -0.55724    
O105     O      0.522820000000     0.529740000000     0.044760000000    -0.557378   
O106     O      0.512160000000     0.513850000000     0.947500000000    -0.55688    
O107     O      0.501100000000     0.487990000000     0.007790000000    -0.557976   
O108     O      0.533950000000     0.555810000000     0.984330000000    -0.556972   
O109     O      0.569530000000     0.556040000000     0.981690000000    -0.558194   
O110     O      0.536690000000     0.488220000000     0.005300000000    -0.556828   
O111     O      0.547840000000     0.514240000000     0.944850000000    -0.558184   
O112     O      0.558540000000     0.530250000000     0.041980000000    -0.558503   
O113     O      0.193580000000     0.863110000000     0.377210000000    -0.558593   
O114     O      0.182880000000     0.846590000000     0.280240000000    -0.558567   
O115     O      0.171770000000     0.821120000000     0.340850000000    -0.558411   
O116     O      0.204830000000     0.888800000000     0.316450000000    -0.557012   
O117     O      0.240350000000     0.888890000000     0.314310000000    -0.55852    
O118     O      0.207280000000     0.821180000000     0.338490000000    -0.556673   
O119     O      0.218540000000     0.846960000000     0.277760000000    -0.557606   
O120     O      0.229170000000     0.863330000000     0.374870000000    -0.557308   
O121     O      0.052700000000     0.513580000000     0.447970000000    -0.557914   
O122     O      0.057870000000     0.529480000000     0.545180000000    -0.557863   
O123     O      0.037580000000     0.487720000000     0.508200000000    -0.558218   
O124     O      0.073110000000     0.555540000000     0.484800000000    -0.556752   
O125     O      0.037990000000     0.556240000000     0.481900000000    -0.558029   
O126     O      0.002460000000     0.488410000000     0.505320000000    -0.556463   
O127     O      0.022860000000     0.530390000000     0.542140000000    -0.557427   
O128     O      0.017700000000     0.514490000000     0.444940000000    -0.557919   
O129     O      0.847130000000     0.180240000000     0.613790000000    -0.557582   
O130     O      0.857790000000     0.196390000000     0.710940000000    -0.557552   
O131     O      0.868860000000     0.222300000000     0.650360000000    -0.556645   
O132     O      0.836150000000     0.154530000000     0.674190000000    -0.558145   
O133     O      0.871790000000     0.154840000000     0.671750000000    -0.556625   
O134     O      0.904490000000     0.222610000000     0.647850000000    -0.558014   
O135     O      0.893540000000     0.196940000000     0.708290000000    -0.558164   
O136     O      0.882860000000     0.180740000000     0.611190000000    -0.558173   
O137     O      0.722750000000     0.863300000000     0.877250000000    -0.557141   
O138     O      0.717590000000     0.846310000000     0.780420000000    -0.557247   
O139     O      0.737760000000     0.888660000000     0.816290000000    -0.556674   
O140     O      0.702690000000     0.821110000000     0.841250000000    -0.558172   
O141     O      0.667400000000     0.821440000000     0.837850000000    -0.55671    
O142     O      0.702480000000     0.889030000000     0.812980000000    -0.557616   
O143     O      0.682440000000     0.846900000000     0.776940000000    -0.558274   
O144     O      0.687540000000     0.863780000000     0.873730000000    -0.557836   
V1       V      0.871140000000     0.669910000000     0.662790000000     1.39568    
V2       V      0.870740000000     0.708000000000     0.660110000000     1.39531    
V3       V      0.204730000000     0.873780000000     0.828980000000     1.39615    
V4       V      0.204110000000     0.835190000000     0.826030000000     1.3958     
V5       V      0.537800000000     0.002460000000     0.996580000000     1.39413    
V6       V      0.537560000000     0.040570000000     0.992100000000     1.39456    
V7       V      0.204930000000     0.337150000000     0.328510000000     1.39609    
V8       V      0.204400000000     0.375140000000     0.324710000000     1.39445    
V9       V      0.871270000000     0.208230000000     0.162430000000     1.39588    
V10      V      0.870810000000     0.169720000000     0.159690000000     1.39486    
V11      V      0.537820000000     0.542330000000     0.496100000000     1.39575    
V12      V      0.537280000000     0.503770000000     0.493450000000     1.39603    
V13      V      0.189380000000     0.341090000000     0.827840000000     1.39691    
V14      V      0.227470000000     0.379440000000     0.824360000000     1.39599    
V15      V      0.392160000000     0.209570000000     0.662810000000     1.39711    
V16      V      0.353250000000     0.172230000000     0.657610000000     1.39356    
V17      V      0.056850000000     0.541900000000     0.996400000000     1.39763    
V18      V      0.019130000000     0.503140000000     0.993720000000     1.39542    
V19      V      0.724830000000     0.876120000000     0.329450000000     1.39602    
V20      V      0.686820000000     0.837710000000     0.325750000000     1.39581    
V21      V      0.851890000000     0.670130000000     0.163000000000     1.39619    
V22      V      0.890590000000     0.707870000000     0.159890000000     1.39661    
V23      V      0.518020000000     0.002280000000     0.496560000000     1.39448    
V24      V      0.555960000000     0.040700000000     0.492120000000     1.39679    
V25      V      0.390490000000     0.188750000000     0.162290000000     1.39475    
V26      V      0.351820000000     0.187880000000     0.158410000000     1.3952     
V27      V      0.516110000000     0.521860000000     0.996210000000     1.39458    
V28      V      0.554540000000     0.522170000000     0.993350000000     1.39683    
V29      V      0.186870000000     0.854920000000     0.328780000000     1.39766    
V30      V      0.225230000000     0.855070000000     0.326250000000     1.39482    
V31      V      0.056710000000     0.521570000000     0.496660000000     1.39606    
V32      V      0.018850000000     0.522390000000     0.493450000000     1.39589    
V33      V      0.851090000000     0.188370000000     0.662430000000     1.39557    
V34      V      0.889570000000     0.188770000000     0.659670000000     1.39573    
V35      V      0.721600000000     0.854840000000     0.828940000000     1.39471    
V36      V      0.683560000000     0.855270000000     0.825230000000     1.39631    


