data_structure

_audit_creation_method RASPA-1.0
_audit_creation_date 2023-6-5
_audit_author_name 'Poobodin Mano'

_cell_length_a    62.8027
_cell_length_b    62.8284
_cell_length_c    38.028
_cell_angle_alpha 89.9349
_cell_angle_beta  90.0648
_cell_angle_gamma 119.938
_cell_volume      130029

_symmetry_cell_setting          triclinic
_symmetry_space_group_name_Hall 'P 1'
_symmetry_space_group_name_H-M  'P 1'
_symmetry_Int_Tables_number     1

_symmetry_equiv_pos_as_xyz 'x,y,z'

loop_
_atom_site_label
_atom_site_type_symbol
_atom_site_fract_x
_atom_site_fract_y
_atom_site_fract_z
_atom_site_charge
C1       C      0.827710000000     0.658600000000     0.702040000000     0.482711   
C2       C      0.848900000000     0.665230000000     0.571960000000     0.482256   
C3       C      0.883190000000     0.681910000000     0.653270000000     0.477827   
C4       C      0.792720000000     0.641970000000     0.620900000000     0.482193   
C5       C      0.164360000000     0.814500000000     0.865120000000     0.482155   
C6       C      0.179830000000     0.835980000000     0.735250000000     0.482424   
C7       C      0.126120000000     0.801310000000     0.786740000000     0.481559   
C8       C      0.217740000000     0.849090000000     0.813720000000     0.481739   
C9       C      0.491480000000     0.999100000000     0.036450000000     0.481055   
C10      C      0.515070000000     0.011090000000     0.907010000000     0.481997   
C11      C      0.548550000000     0.029610000000     0.989620000000     0.482494   
C12      C      0.458630000000     0.980870000000     0.953850000000     0.478024   
C13      C      0.158500000000     0.327760000000     0.377330000000     0.482994   
C14      C      0.178760000000     0.333180000000     0.247230000000     0.479308   
C15      C      0.214490000000     0.352860000000     0.327350000000     0.481965   
C16      C      0.123360000000     0.308110000000     0.296980000000     0.4816     
C17      C      0.846610000000     0.180320000000     0.081260000000     0.481572   
C18      C      0.824300000000     0.162580000000     0.210630000000     0.47854    
C19      C      0.880430000000     0.193860000000     0.163030000000     0.47821    
C20      C      0.790220000000     0.148890000000     0.128800000000     0.478745   
C21      C      0.495140000000     0.493130000000     0.533800000000     0.478726   
C22      C      0.514610000000     0.511990000000     0.403990000000     0.481899   
C23      C      0.459700000000     0.479090000000     0.453280000000     0.477773   
C24      C      0.550410000000     0.525960000000     0.484720000000     0.478685   
C25      C      0.175900000000     0.327110000000     0.877250000000     0.482726   
C26      C      0.161500000000     0.333950000000     0.747320000000     0.479398   
C27      C      0.190650000000     0.307330000000     0.796390000000     0.482092   
C28      C      0.146170000000     0.353780000000     0.827880000000     0.482472   
C29      C      0.337300000000     0.158490000000     0.696580000000     0.479244   
C30      C      0.333850000000     0.177240000000     0.567390000000     0.483054   
C31      C      0.313330000000     0.190800000000     0.649670000000     0.479234   
C32      C      0.357670000000     0.144960000000     0.614560000000     0.482374   
C33      C      0.001980000000     0.508390000000     0.910860000000     0.481205   
C34      C      0.006180000000     0.492280000000     0.040820000000     0.481232   
C35      C      0.027300000000     0.478270000000     0.960050000000     0.47881    
C36      C      0.980850000000     0.522540000000     0.991560000000     0.476949   
C37      C      0.672310000000     0.846600000000     0.245540000000     0.482313   
C38      C      0.678460000000     0.829900000000     0.374870000000     0.478795   
C39      C      0.700220000000     0.817900000000     0.293120000000     0.482805   
C40      C      0.650820000000     0.858710000000     0.327410000000     0.47821    
C41      C      0.843990000000     0.665130000000     0.201120000000     0.47929    
C42      C      0.830210000000     0.672230000000     0.071090000000     0.479817   
C43      C      0.857440000000     0.643660000000     0.120290000000     0.482755   
C44      C      0.816630000000     0.693480000000     0.152120000000     0.479056   
C45      C      0.491730000000     0.997830000000     0.407000000000     0.478852   
C46      C      0.507790000000     0.996070000000     0.537590000000     0.478389   
C47      C      0.475590000000     0.018330000000     0.486590000000     0.478632   
C48      C      0.524190000000     0.975620000000     0.458570000000     0.482184   
C49      C      0.334610000000     0.172630000000     0.197130000000     0.479115   
C50      C      0.334850000000     0.154560000000     0.067020000000     0.482699   
C51      C      0.354640000000     0.208860000000     0.117570000000     0.481294   
C52      C      0.314210000000     0.117780000000     0.146820000000     0.482556   
C53      C      0.496920000000     0.485960000000     0.904050000000     0.48163    
C54      C      0.513850000000     0.508390000000     0.033390000000     0.478345   
C55      C      0.530630000000     0.542460000000     0.951700000000     0.48169    
C56      C      0.480530000000     0.452350000000     0.986010000000     0.477786   
C57      C      0.185650000000     0.841690000000     0.365020000000     0.479503   
C58      C      0.172320000000     0.819810000000     0.235280000000     0.478595   
C59      C      0.156450000000     0.785500000000     0.316680000000     0.482555   
C60      C      0.201730000000     0.875950000000     0.283310000000     0.478802   
C61      C      0.012910000000     0.511140000000     0.541370000000     0.483969   
C62      C      0.000300000000     0.488820000000     0.411440000000     0.485889   
C63      C      0.030390000000     0.545000000000     0.458940000000     0.478783   
C64      C      0.982780000000     0.454990000000     0.493790000000     0.476708   
C65      C      0.839520000000     0.177760000000     0.710520000000     0.478193   
C66      C      0.822900000000     0.156190000000     0.580900000000     0.481023   
C67      C      0.808260000000     0.121760000000     0.661710000000     0.480441   
C68      C      0.854130000000     0.212540000000     0.629440000000     0.482016   
C69      C      0.668790000000     0.822840000000     0.745230000000     0.482764   
C70      C      0.676610000000     0.843770000000     0.875450000000     0.478915   
C71      C      0.651090000000     0.787970000000     0.826640000000     0.47834    
C72      C      0.694260000000     0.878450000000     0.794090000000     0.478488   
C73      C      0.759870000000     0.059460000000     0.689300000000    -0.13317    
C74      C      0.730730000000     0.915480000000     0.778550000000     0.0759111  
C75      C      0.692140000000     0.913680000000     0.776220000000     0.0759098  
C76      C      0.742430000000     0.939530000000     0.765640000000    -0.0976654  
C77      C      0.763100000000     0.994570000000     0.755050000000    -0.038073   
C78      C      0.774100000000     0.018220000000     0.740730000000    -0.0336339  
C79      C      0.740480000000     0.975890000000     0.742060000000    -0.00779892 
C80      C      0.703220000000     0.937620000000     0.763170000000    -0.0981532  
C81      C      0.762750000000     0.023700000000     0.713010000000    -0.0154072  
C82      C      0.799500000000     0.062740000000     0.692760000000    -0.107584   
C83      C      0.740240000000     0.004920000000     0.699830000000    -0.0336857  
C84      C      0.810010000000     0.086600000000     0.679690000000     0.0779172  
C85      C      0.770710000000     0.083460000000     0.675590000000     0.151379   
C86      C      0.729230000000     0.981330000000     0.714210000000    -0.0381956  
C87      C      0.728610000000     0.950770000000     0.757330000000     0.0498998  
C88      C      0.774200000000     0.048960000000     0.698180000000     0.0651589  
C89      C      0.753350000000     0.092550000000     0.664980000000    -0.212398   
C90      C      0.868550000000     0.275330000000     0.603330000000    -0.133121   
C91      C      0.982040000000     0.417910000000     0.509640000000     0.0730003  
C92      C      0.945470000000     0.420110000000     0.512580000000     0.0752654  
C93      C      0.969690000000     0.393940000000     0.522780000000    -0.0973676  
C94      C      0.934800000000     0.338960000000     0.533370000000    -0.038351   
C95      C      0.922320000000     0.315410000000     0.548030000000    -0.0337086  
C96      C      0.931630000000     0.357940000000     0.547110000000    -0.00782038 
C97      C      0.932630000000     0.396260000000     0.526030000000    -0.0979533  
C98      C      0.906500000000     0.310360000000     0.576910000000    -0.0153963  
C99      C      0.903920000000     0.270790000000     0.595500000000    -0.107199   
C100     C      0.903570000000     0.329480000000     0.590820000000    -0.0337024  
C101     C      0.890630000000     0.247000000000     0.608820000000     0.0784899  
C102     C      0.855480000000     0.251420000000     0.617330000000     0.151455   
C103     C      0.915910000000     0.352950000000     0.576020000000    -0.0385092  
C104     C      0.944780000000     0.382960000000     0.531570000000     0.0493162  
C105     C      0.892850000000     0.285180000000     0.592140000000     0.0651402  
C106     C      0.829620000000     0.243040000000     0.630110000000    -0.2118     
C107     C      0.142690000000     0.723200000000     0.344020000000    -0.133272   
C108     C      0.030980000000     0.581940000000     0.442750000000     0.0759798  
C109     C      0.067580000000     0.579820000000     0.439620000000     0.0759046  
C110     C      0.043150000000     0.605750000000     0.429100000000    -0.0981781  
C111     C      0.077710000000     0.660580000000     0.416760000000    -0.0380167  
C112     C      0.089820000000     0.683850000000     0.401210000000    -0.0332878  
C113     C      0.080880000000     0.641460000000     0.403580000000    -0.00774733 
C114     C      0.080260000000     0.603530000000     0.425650000000    -0.0981885  
C115     C      0.105260000000     0.688490000000     0.371980000000    -0.0151575  
C116     C      0.107180000000     0.727510000000     0.352050000000    -0.107103   
C117     C      0.108210000000     0.669240000000     0.358650000000    -0.0334291  
C118     C      0.120160000000     0.751100000000     0.337940000000     0.0792544  
C119     C      0.155380000000     0.746850000000     0.329120000000     0.15252    
C120     C      0.096240000000     0.646040000000     0.374340000000    -0.0380853  
C121     C      0.067990000000     0.616690000000     0.419890000000     0.0501685  
C122     C      0.118510000000     0.713380000000     0.355800000000     0.0656519  
C123     C      0.180930000000     0.755060000000     0.315180000000    -0.212455   
C124     C      0.581200000000     0.603760000000     0.923950000000    -0.132907   
C125     C      0.614470000000     0.750960000000     0.841550000000     0.0758617  
C126     C      0.652840000000     0.752270000000     0.843230000000     0.0759294  
C127     C      0.602530000000     0.726700000000     0.853540000000    -0.0976831  
C128     C      0.585160000000     0.681960000000     0.900400000000    -0.0380138  
C129     C      0.573640000000     0.658050000000     0.913750000000    -0.0335864  
C130     C      0.603730000000     0.689470000000     0.874860000000    -0.00764573 
C131     C      0.641470000000     0.728020000000     0.855220000000    -0.0975931  
C132     C      0.580390000000     0.641050000000     0.901910000000    -0.0152967  
C133     C      0.542590000000     0.602760000000     0.921350000000    -0.107414   
C134     C      0.599000000000     0.648570000000     0.876440000000    -0.0336045  
C135     C      0.531030000000     0.578740000000     0.933900000000     0.0787636  
C136     C      0.569290000000     0.579520000000     0.937040000000     0.151712   
C137     C      0.610540000000     0.672500000000     0.863080000000    -0.0381388  
C138     C      0.616040000000     0.714980000000     0.860860000000     0.0497812  
C139     C      0.567900000000     0.615520000000     0.915880000000     0.0653134  
C140     C      0.585540000000     0.568920000000     0.946570000000    -0.212604   
C141     C      0.267950000000     0.054140000000     0.171880000000    -0.134159   
C142     C      0.238760000000     0.912420000000     0.267750000000     0.0762512  
C143     C      0.200750000000     0.911830000000     0.265710000000     0.0764367  
C144     C      0.251060000000     0.936590000000     0.255330000000    -0.0972437  
C145     C      0.269810000000     0.981590000000     0.208560000000    -0.0376494  
C146     C      0.280790000000     0.005080000000     0.193690000000    -0.0335903  
C147     C      0.250390000000     0.973980000000     0.232780000000    -0.00751715 
C148     C      0.212420000000     0.935870000000     0.252980000000    -0.0974927  
C149     C      0.272420000000     0.021370000000     0.202410000000    -0.0155015  
C150     C      0.308530000000     0.061170000000     0.183160000000    -0.107689   
C151     C      0.253310000000     0.013960000000     0.226970000000    -0.0336095  
C152     C      0.318180000000     0.084670000000     0.168950000000     0.0788944  
C153     C      0.277970000000     0.077620000000     0.156700000000     0.152386   
C154     C      0.242530000000     0.990620000000     0.242110000000    -0.0378904  
C155     C      0.237880000000     0.948590000000     0.247420000000     0.049885   
C156     C      0.283170000000     0.045890000000     0.185590000000     0.0660504  
C157     C      0.259900000000     0.084090000000     0.140350000000    -0.212218   
C158     C      0.365280000000     0.270320000000     0.091170000000    -0.133542   
C159     C      0.478830000000     0.414760000000     0.001210000000     0.0755992  
C160     C      0.442840000000     0.417940000000     0.005030000000     0.0756077  
C161     C      0.466180000000     0.390850000000     0.014390000000    -0.0983969  
C162     C      0.439400000000     0.347890000000     0.064190000000    -0.0381607  
C163     C      0.427070000000     0.324260000000     0.078460000000    -0.0337479  
C164     C      0.427970000000     0.355200000000     0.038910000000    -0.00786541 
C165     C      0.429600000000     0.394000000000     0.018220000000    -0.0975863  
C166     C      0.403000000000     0.307320000000     0.067780000000    -0.0155267  
C167     C      0.402790000000     0.269150000000     0.087370000000    -0.108095   
C168     C      0.391460000000     0.314700000000     0.042760000000    -0.0337338  
C169     C      0.390470000000     0.245170000000     0.100110000000     0.0785052  
C170     C      0.353160000000     0.246160000000     0.104500000000     0.152089   
C171     C      0.403790000000     0.338380000000     0.028520000000    -0.0382699  
C172     C      0.441340000000     0.380270000000     0.023480000000     0.0497846  
C173     C      0.390180000000     0.281930000000     0.082290000000     0.0653326  
C174     C      0.326610000000     0.235780000000     0.115460000000    -0.213369   
C175     C      0.650890000000     0.816460000000     0.651070000000    -0.132727   
C176     C      0.696470000000     0.844140000000     0.431320000000     0.075735   
C177     C      0.662300000000     0.804040000000     0.425100000000     0.0763673  
C178     C      0.696120000000     0.841200000000     0.467780000000    -0.097465   
C179     C      0.697530000000     0.827670000000     0.543760000000    -0.0380052  
C180     C      0.695510000000     0.826610000000     0.580410000000    -0.0335131  
C181     C      0.676410000000     0.816490000000     0.522420000000    -0.00746476 
C182     C      0.661660000000     0.800340000000     0.461380000000    -0.0976812  
C183     C      0.672330000000     0.814130000000     0.596720000000    -0.0149891  
C184     C      0.687410000000     0.813780000000     0.657850000000    -0.107044   
C185     C      0.651290000000     0.802200000000     0.575380000000    -0.0335709  
C186     C      0.685940000000     0.815930000000     0.694120000000     0.0788853  
C187     C      0.649370000000     0.818150000000     0.687810000000     0.151766   
C188     C      0.653280000000     0.803510000000     0.538770000000    -0.0378724  
C189     C      0.678320000000     0.819230000000     0.483400000000     0.0495877  
C190     C      0.670070000000     0.814530000000     0.635710000000     0.0650734  
C191     C      0.627730000000     0.820070000000     0.701480000000    -0.212182   
C192     C      0.686740000000     0.873810000000     0.156260000000    -0.134488   
C193     C      0.696880000000     0.848850000000     0.930380000000     0.0764721  
C194     C      0.660340000000     0.851130000000     0.927680000000     0.0762686  
C195     C      0.697530000000     0.851250000000     0.966920000000    -0.0982898  
C196     C      0.681050000000     0.836640000000     0.042930000000    -0.0379344  
C197     C      0.679320000000     0.836280000000     0.079540000000    -0.0335165  
C198     C      0.678400000000     0.854060000000     0.023150000000    -0.00791848 
C199     C      0.660640000000     0.853920000000     0.964150000000    -0.0980222  
C200     C      0.675220000000     0.853550000000     0.097150000000    -0.015918   
C201     C      0.657680000000     0.830650000000     0.152990000000    -0.108584   
C202     C      0.673010000000     0.871280000000     0.077470000000    -0.0336569  
C203     C      0.656920000000     0.829650000000     0.189560000000     0.0801687  
C204     C      0.685710000000     0.872460000000     0.193250000000     0.153084   
C205     C      0.674360000000     0.871400000000     0.040730000000    -0.0384311  
C206     C      0.679100000000     0.853490000000     0.984230000000     0.0502931  
C207     C      0.673090000000     0.852740000000     0.135980000000     0.0663813  
C208     C      0.700070000000     0.896350000000     0.213200000000    -0.214395   
C209     C      0.750610000000     0.807490000000     0.263310000000    -0.133127   
C210     C      0.780860000000     0.694990000000     0.168690000000     0.076743   
C211     C      0.819660000000     0.731500000000     0.168640000000     0.0763143  
C212     C      0.769650000000     0.707770000000     0.181540000000    -0.0980675  
C213     C      0.749550000000     0.742500000000     0.191660000000    -0.0380814  
C214     C      0.738280000000     0.754520000000     0.207090000000    -0.0333518  
C215     C      0.772290000000     0.746420000000     0.204170000000    -0.00768586 
C216     C      0.809050000000     0.744830000000     0.181790000000    -0.0979935  
C217     C      0.749400000000     0.770640000000     0.235550000000    -0.0153192  
C218     C      0.711750000000     0.770520000000     0.257450000000    -0.107534   
C219     C      0.772260000000     0.774690000000     0.247860000000    -0.0334113  
C220     C      0.700330000000     0.782560000000     0.272020000000     0.0791118  
C221     C      0.738840000000     0.819310000000     0.278580000000     0.151765   
C222     C      0.783610000000     0.762770000000     0.232270000000    -0.0381092  
C223     C      0.783790000000     0.732920000000     0.188700000000     0.0503116  
C224     C      0.737110000000     0.783050000000     0.252330000000     0.0655844  
C225     C      0.755300000000     0.845520000000     0.290780000000    -0.212434   
C226     C      0.574350000000     0.963720000000     0.433630000000    -0.133574   
C227     C      0.612680000000     0.856050000000     0.342430000000     0.075778   
C228     C      0.649770000000     0.894160000000     0.346890000000     0.0758594  
C229     C      0.599380000000     0.866650000000     0.355750000000    -0.0977502  
C230     C      0.575300000000     0.898060000000     0.367530000000    -0.0381392  
C231     C      0.563040000000     0.909470000000     0.381880000000    -0.0334547  
C232     C      0.598130000000     0.902950000000     0.381090000000    -0.00773641 
C233     C      0.637080000000     0.905290000000     0.360350000000    -0.0983379  
C234     C      0.573320000000     0.925960000000     0.410150000000    -0.0153819  
C235     C      0.535430000000     0.926630000000     0.429200000000    -0.107442   
C236     C      0.595930000000     0.930440000000     0.424100000000    -0.0335571  
C237     C      0.524010000000     0.939290000000     0.441690000000     0.0791645  
C238     C      0.562600000000     0.976130000000     0.446780000000     0.152834   
C239     C      0.608190000000     0.919110000000     0.409710000000    -0.0380908  
C240     C      0.611630000000     0.891480000000     0.365370000000     0.0499657  
C241     C      0.560840000000     0.938890000000     0.424530000000     0.0656486  
C242     C      0.579080000000     0.002530000000     0.458150000000    -0.212883   
C243     C      0.031460000000     0.515150000000     0.634880000000    -0.134913   
C244     C      0.984100000000     0.493490000000     0.854600000000     0.0757885  
C245     C      0.019760000000     0.532770000000     0.859580000000     0.0769903  
C246     C      0.985090000000     0.495350000000     0.818010000000    -0.100818   
C247     C      0.009270000000     0.537920000000     0.744220000000    -0.0380828  
C248     C      0.011650000000     0.538730000000     0.707570000000    -0.0336281  
C249     C      0.006520000000     0.517480000000     0.763140000000    -0.00860036 
C250     C      0.021040000000     0.535420000000     0.823010000000    -0.0989059  
C251     C      0.011880000000     0.519360000000     0.689470000000    -0.0164117  
C252     C      0.998380000000     0.523620000000     0.629430000000    -0.110236   
C253     C      0.009400000000     0.499090000000     0.708500000000    -0.0333304  
C254     C      0.999060000000     0.521320000000     0.593070000000     0.0782197  
C255     C      0.032330000000     0.513430000000     0.598060000000     0.152891   
C256     C      0.006560000000     0.498070000000     0.744940000000    -0.0377735  
C257     C      0.003940000000     0.516300000000     0.801860000000     0.0525528  
C258     C      0.014200000000     0.519820000000     0.650730000000     0.0683708  
C259     C      0.051720000000     0.508190000000     0.583570000000    -0.213087   
C260     C      0.980850000000     0.483120000000     0.318030000000    -0.131409   
C261     C      0.024390000000     0.506370000000     0.097190000000     0.0770706  
C262     C      0.988650000000     0.467270000000     0.091560000000     0.0755473  
C263     C      0.023900000000     0.503700000000     0.133680000000    -0.0978186  
C264     C      0.024800000000     0.489800000000     0.209540000000    -0.0371551  
C265     C      0.023150000000     0.489070000000     0.246200000000    -0.0347608  
C266     C      0.003490000000     0.480000000000     0.188650000000    -0.00675266 
C267     C      0.987770000000     0.463890000000     0.127940000000    -0.0994753  
C268     C      0.000130000000     0.478290000000     0.262970000000    -0.0105964  
C269     C      0.015080000000     0.476430000000     0.323490000000    -0.10456    
C270     C      0.978800000000     0.467790000000     0.242090000000    -0.0363484  
C271     C      0.014580000000     0.479110000000     0.359770000000     0.0796141  
C272     C      0.980290000000     0.485370000000     0.354830000000     0.151028   
C273     C      0.980460000000     0.468750000000     0.205430000000    -0.0384668  
C274     C      0.005240000000     0.482400000000     0.149630000000     0.0516553  
C275     C      0.998490000000     0.478980000000     0.302000000000     0.0607373  
C276     C      0.960470000000     0.489940000000     0.369350000000    -0.212303   
C277     C      0.868170000000     0.593060000000     0.092610000000    -0.132998   
C278     C      0.980920000000     0.559090000000     0.008380000000     0.0740825  
C279     C      0.943370000000     0.521260000000     0.006470000000     0.0759535  
C280     C      0.968720000000     0.571120000000     0.020530000000    -0.0970896  
C281     C      0.935430000000     0.593270000000     0.028130000000    -0.038221   
C282     C      0.923350000000     0.604950000000     0.042070000000    -0.033419   
C283     C      0.930260000000     0.570140000000     0.040730000000    -0.00764037 
C284     C      0.930630000000     0.532680000000     0.018860000000    -0.0978268  
C285     C      0.905920000000     0.593850000000     0.069090000000    -0.0153325  
C286     C      0.905660000000     0.631650000000     0.089440000000    -0.107309   
C287     C      0.900790000000     0.570710000000     0.081690000000    -0.0335246  
C288     C      0.893270000000     0.643220000000     0.102310000000     0.0788226  
C289     C      0.855950000000     0.604960000000     0.106120000000     0.151751   
C290     C      0.912770000000     0.558970000000     0.067600000000    -0.0382438  
C291     C      0.943330000000     0.557850000000     0.026320000000     0.049758   
C292     C      0.893090000000     0.606340000000     0.083930000000     0.065367   
C293     C      0.829120000000     0.588670000000     0.115620000000    -0.212259   
C294     C      0.357010000000     0.155910000000     0.976370000000    -0.134825   
C295     C      0.317150000000     0.136510000000     0.748640000000     0.0759394  
C296     C      0.358490000000     0.168850000000     0.751260000000     0.0768094  
C297     C      0.316540000000     0.133930000000     0.785210000000    -0.0971903  
C298     C      0.322050000000     0.126050000000     0.862720000000    -0.0379333  
C299     C      0.321230000000     0.125530000000     0.899530000000    -0.0342082  
C300     C      0.336670000000     0.148280000000     0.844600000000    -0.00788092 
C301     C      0.358710000000     0.166380000000     0.787680000000    -0.0980065  
C302     C      0.335360000000     0.147100000000     0.918870000000    -0.0160541  
C303     C      0.313340000000     0.139350000000     0.976140000000    -0.1088     
C304     C      0.349980000000     0.169240000000     0.901010000000    -0.0340436  
C305     C      0.313980000000     0.141890000000     0.012620000000     0.0791099  
C306     C      0.357340000000     0.158060000000     0.013180000000     0.152335   
C307     C      0.350430000000     0.169890000000     0.864370000000    -0.0377258  
C308     C      0.337370000000     0.149280000000     0.805390000000     0.0496202  
C309     C      0.335080000000     0.146890000000     0.957700000000     0.0664098  
C310     C      0.382320000000     0.169400000000     0.030780000000    -0.212344   
C311     C      0.353720000000     0.198850000000     0.476220000000    -0.134523   
C312     C      0.313280000000     0.172630000000     0.248990000000     0.0752117  
C313     C      0.355320000000     0.184010000000     0.252110000000     0.0767121  
C314     C      0.312390000000     0.174600000000     0.285540000000    -0.0975068  
C315     C      0.317230000000     0.188800000000     0.362730000000    -0.037838   
C316     C      0.316640000000     0.189190000000     0.399530000000    -0.0342843  
C317     C      0.332730000000     0.182080000000     0.345110000000    -0.00792757 
C318     C      0.355240000000     0.186740000000     0.288460000000    -0.0980772  
C319     C      0.331890000000     0.183350000000     0.419320000000    -0.0159452  
C320     C      0.310820000000     0.168720000000     0.477100000000    -0.1083     
C321     C      0.347330000000     0.176650000000     0.401950000000    -0.0339179  
C322     C      0.312080000000     0.167410000000     0.513590000000     0.079433   
C323     C      0.354630000000     0.197710000000     0.513090000000     0.151612   
C324     C      0.347550000000     0.175750000000     0.365350000000    -0.0376133  
C325     C      0.333460000000     0.181370000000     0.305910000000     0.0496012  
C326     C      0.331930000000     0.184070000000     0.458110000000     0.0664976  
C327     C      0.379460000000     0.213820000000     0.530110000000    -0.211091   
C328     C      0.405390000000     0.130460000000     0.585040000000    -0.132809   
C329     C      0.438210000000     0.016600000000     0.503750000000     0.076145   
C330     C      0.475120000000     0.054970000000     0.500790000000     0.0766258  
C331     C      0.425530000000     0.028040000000     0.516410000000    -0.0976533  
C332     C      0.401990000000     0.060360000000     0.525810000000    -0.0379315  
C333     C      0.390630000000     0.072820000000     0.539650000000    -0.0335229  
C334     C      0.425460000000     0.065910000000     0.537440000000    -0.00781256 
C335     C      0.463070000000     0.066940000000     0.513570000000    -0.0983062  
C336     C      0.402460000000     0.091010000000     0.565540000000    -0.0152106  
C337     C      0.365930000000     0.093880000000     0.585780000000    -0.106862   
C338     C      0.425670000000     0.096070000000     0.577730000000    -0.0337394  
C339     C      0.355610000000     0.107680000000     0.597880000000     0.0783758  
C340     C      0.394760000000     0.144160000000     0.597360000000     0.150291   
C341     C      0.437050000000     0.083730000000     0.563780000000    -0.038201   
C342     C      0.438080000000     0.053460000000     0.522050000000     0.0501841  
C343     C      0.391070000000     0.105220000000     0.579090000000     0.0650388  
C344     C      0.412070000000     0.171480000000     0.602290000000    -0.209934   
C345     C      0.097940000000     0.368490000000     0.852990000000    -0.133567   
C346     C      0.064820000000     0.479240000000     0.946230000000     0.0761981  
C347     C      0.026900000000     0.442060000000     0.940680000000     0.0767659  
C348     C      0.077460000000     0.467870000000     0.933170000000    -0.0975891  
C349     C      0.099500000000     0.434540000000     0.921410000000    -0.0380626  
C350     C      0.111080000000     0.422470000000     0.906940000000    -0.0334749  
C351     C      0.077270000000     0.431000000000     0.907270000000    -0.00762404 
C352     C      0.038920000000     0.430190000000     0.927400000000    -0.0981119  
C353     C      0.100720000000     0.406690000000     0.877940000000    -0.0152912  
C354     C      0.137790000000     0.404080000000     0.859860000000    -0.107238   
C355     C      0.078770000000     0.403620000000     0.863390000000    -0.0334503  
C356     C      0.148310000000     0.390650000000     0.846970000000     0.0788515  
C357     C      0.108790000000     0.355330000000     0.839420000000     0.152733   
C358     C      0.067160000000     0.415570000000     0.877920000000    -0.0381594  
C359     C      0.064460000000     0.443160000000     0.923030000000     0.0501955  
C360     C      0.112350000000     0.392960000000     0.863420000000     0.0655612  
C361     C      0.091390000000     0.329500000000     0.826570000000    -0.2126     
C362     C      0.203530000000     0.258540000000     0.767030000000    -0.133125   
C363     C      0.314550000000     0.227400000000     0.669400000000     0.0762678  
C364     C      0.276510000000     0.190090000000     0.666720000000     0.0763548  
C365     C      0.302970000000     0.239450000000     0.683770000000    -0.0981063  
C366     C      0.269930000000     0.261710000000     0.696660000000    -0.0381332  
C367     C      0.258000000000     0.272870000000     0.712760000000    -0.0333809  
C368     C      0.265280000000     0.238430000000     0.707660000000    -0.0078047  
C369     C      0.264410000000     0.201500000000     0.681370000000    -0.098333   
C370     C      0.241320000000     0.261090000000     0.740450000000    -0.0153312  
C371     C      0.239980000000     0.297960000000     0.762840000000    -0.107425   
C372     C      0.236990000000     0.237930000000     0.751730000000    -0.0335288  
C373     C      0.227080000000     0.308650000000     0.776970000000     0.0781357  
C374     C      0.190880000000     0.269540000000     0.782000000000     0.151626   
C375     C      0.248740000000     0.226690000000     0.735410000000    -0.038294   
C376     C      0.277690000000     0.226380000000     0.690470000000     0.0502957  
C377     C      0.228150000000     0.272690000000     0.757060000000     0.0651906  
C378     C      0.164610000000     0.252330000000     0.793330000000    -0.212046   
C379     C      0.501690000000     0.469640000000     0.812040000000    -0.134645   
C380     C      0.484970000000     0.503180000000     0.589220000000     0.0767449  
C381     C      0.494240000000     0.471050000000     0.585340000000     0.0760965  
C382     C      0.482590000000     0.500420000000     0.625640000000    -0.097494   
C383     C      0.494460000000     0.502960000000     0.702410000000    -0.0376068  
C384     C      0.494510000000     0.501790000000     0.739050000000    -0.0337236  
C385     C      0.486790000000     0.481680000000     0.681910000000    -0.00758224 
C386     C      0.492560000000     0.468160000000     0.621890000000    -0.0969822  
C387     C      0.487400000000     0.479460000000     0.756150000000    -0.0158389  
C388     C      0.476070000000     0.487900000000     0.815120000000    -0.108757   
C389     C      0.479980000000     0.458200000000     0.736020000000    -0.0340424  
C390     C      0.478380000000     0.488810000000     0.851580000000     0.0801799  
C391     C      0.503920000000     0.470800000000     0.848950000000     0.153155   
C392     C      0.479430000000     0.459230000000     0.699270000000    -0.0379371  
C393     C      0.487040000000     0.483210000000     0.642700000000     0.0495524  
C394     C      0.488160000000     0.478690000000     0.794980000000     0.0664991  
C395     C      0.517890000000     0.459500000000     0.865550000000    -0.214597   
C396     C      0.514920000000     0.533690000000     0.313210000000    -0.134446   
C397     C      0.534560000000     0.509570000000     0.086550000000     0.0754198  
C398     C      0.503390000000     0.520330000000     0.087060000000     0.0765616  
C399     C      0.536780000000     0.511950000000     0.123130000000    -0.0970088  
C400     C      0.544560000000     0.526340000000     0.200120000000    -0.0377925  
C401     C      0.544820000000     0.526410000000     0.236940000000    -0.0341255  
C402     C      0.522660000000     0.519590000000     0.181510000000    -0.00762062 
C403     C      0.505550000000     0.523460000000     0.123450000000    -0.0975223  
C404     C      0.523340000000     0.520250000000     0.255850000000    -0.0157702  
C405     C      0.529830000000     0.505210000000     0.313360000000    -0.108116   
C406     C      0.501580000000     0.513770000000     0.237510000000    -0.0337486  
C407     C      0.527050000000     0.503290000000     0.349800000000     0.0797802  
C408     C      0.512570000000     0.531880000000     0.350040000000     0.152591   
C409     C      0.501150000000     0.513180000000     0.200840000000    -0.0376303  
C410     C      0.521900000000     0.518610000000     0.142250000000     0.0494204  
C411     C      0.523230000000     0.520110000000     0.294720000000     0.0665405  
C412     C      0.502170000000     0.546420000000     0.367480000000    -0.213252   
C413     C      0.859310000000     0.208210000000     0.992300000000    -0.133588   
C414     C      0.864410000000     0.185020000000     0.761400000000     0.0757507  
C415     C      0.825920000000     0.183170000000     0.766550000000     0.0752435  
C416     C      0.867920000000     0.187960000000     0.797740000000    -0.097925   
C417     C      0.862640000000     0.176770000000     0.875660000000    -0.0379891  
C418     C      0.863880000000     0.176800000000     0.912340000000    -0.0337108  
C419     C      0.852350000000     0.189270000000     0.858180000000    -0.0076928  
C420     C      0.828750000000     0.185900000000     0.803000000000    -0.0977337  
C421     C      0.854720000000     0.189190000000     0.932570000000    -0.0152481  
C422     C      0.849220000000     0.166090000000     0.988750000000    -0.107421   
C423     C      0.844880000000     0.202090000000     0.915100000000    -0.0335542  
C424     C      0.847780000000     0.164640000000     0.025290000000     0.0796059  
C425     C      0.858030000000     0.206490000000     0.029270000000     0.152799   
C426     C      0.843770000000     0.202180000000     0.878370000000    -0.0382228  
C427     C      0.849800000000     0.188010000000     0.819160000000     0.0494076  
C428     C      0.854560000000     0.187880000000     0.971700000000     0.0653565  
C429     C      0.865060000000     0.229890000000     0.049380000000    -0.213907   
C430     C      0.827490000000     0.138960000000     0.489560000000    -0.1335     
C431     C      0.814680000000     0.173710000000     0.265830000000     0.0760717  
C432     C      0.821560000000     0.139920000000     0.262310000000     0.0764092  
C433     C      0.811830000000     0.170880000000     0.302290000000    -0.098215   
C434     C      0.794000000000     0.148340000000     0.377110000000    -0.0387659  
C435     C      0.793910000000     0.147100000000     0.413870000000    -0.0334803  
C436     C      0.814220000000     0.150950000000     0.357920000000    -0.00796464 
C437     C      0.819380000000     0.136950000000     0.298760000000    -0.0987604  
C438     C      0.814310000000     0.149010000000     0.432240000000    -0.0153211  
C439     C      0.803190000000     0.158690000000     0.491410000000    -0.107133   
C440     C      0.834580000000     0.151780000000     0.412670000000    -0.0332158  
C441     C      0.805160000000     0.159630000000     0.527970000000     0.0792509  
C442     C      0.829410000000     0.140230000000     0.526450000000     0.153155   
C443     C      0.834410000000     0.152460000000     0.375980000000    -0.0385952  
C444     C      0.814720000000     0.152680000000     0.319130000000     0.0503286  
C445     C      0.814840000000     0.148740000000     0.471530000000     0.0647153  
C446     C      0.842210000000     0.127970000000     0.543850000000    -0.214773   
C447     C      0.144880000000     0.341530000000     0.466310000000    -0.134991   
C448     C      0.176990000000     0.353020000000     0.691870000000     0.076418   
C449     C      0.137800000000     0.317090000000     0.695280000000     0.0757527  
C450     C      0.175470000000     0.352850000000     0.655260000000    -0.098868   
C451     C      0.173860000000     0.334460000000     0.580620000000    -0.0380179  
C452     C      0.172960000000     0.332450000000     0.544050000000    -0.0335304  
C453     C      0.153800000000     0.332680000000     0.599420000000    -0.00829043 
C454     C      0.135540000000     0.316570000000     0.658690000000    -0.0988084  
C455     C      0.152100000000     0.328930000000     0.525500000000    -0.0161305  
C456     C      0.158270000000     0.311860000000     0.469710000000    -0.108924   
C457     C      0.132080000000     0.327330000000     0.544230000000    -0.0338562  
C458     C      0.159190000000     0.311620000000     0.433140000000     0.079805   
C459     C      0.145850000000     0.341010000000     0.429380000000     0.153479   
C460     C      0.132830000000     0.328970000000     0.580940000000    -0.0384903  
C461     C      0.154760000000     0.334260000000     0.638280000000     0.0504891  
C462     C      0.151550000000     0.327280000000     0.486650000000     0.0665454  
C463     C      0.136900000000     0.355880000000     0.409310000000    -0.214392   
C464     C      0.203040000000     0.339890000000     0.966440000000    -0.134824   
C465     C      0.182590000000     0.352120000000     0.191570000000     0.0764325  
C466     C      0.184880000000     0.315630000000     0.195380000000     0.0755886  
C467     C      0.183880000000     0.351780000000     0.154980000000    -0.0988544  
C468     C      0.166920000000     0.333420000000     0.080370000000    -0.0380754  
C469     C      0.165880000000     0.331430000000     0.043790000000    -0.0335621  
C470     C      0.184890000000     0.331170000000     0.099360000000    -0.0083098  
C471     C      0.186550000000     0.314930000000     0.158810000000    -0.0988921  
C472     C      0.182970000000     0.327460000000     0.025440000000    -0.0159969  
C473     C      0.159820000000     0.310900000000     0.969420000000    -0.108858   
C474     C      0.201070000000     0.325350000000     0.044370000000    -0.034012   
C475     C      0.158770000000     0.310850000000     0.932840000000     0.0797684  
C476     C      0.201660000000     0.339550000000     0.929490000000     0.153383   
C477     C      0.201890000000     0.326980000000     0.081080000000    -0.0385107  
C478     C      0.185490000000     0.332830000000     0.138210000000     0.0504711  
C479     C      0.181990000000     0.325900000000     0.986580000000     0.0663375  
C480     C      0.225580000000     0.354100000000     0.909640000000    -0.214363   
C481     C      0.060840000000     0.260170000000     0.269370000000    -0.13396    
C482     C      0.916500000000     0.230410000000     0.181130000000     0.0753464  
C483     C      0.916670000000     0.192820000000     0.178370000000     0.0758045  
C484     C      0.940620000000     0.242460000000     0.193740000000    -0.0974131  
C485     C      0.985430000000     0.259550000000     0.240420000000    -0.0411399  
C486     C      0.009020000000     0.270500000000     0.254960000000    -0.0305004  
C487     C      0.978350000000     0.241580000000     0.214010000000    -0.00601096 
C488     C      0.940710000000     0.204250000000     0.191160000000    -0.0974686  
C489     C      0.025980000000     0.263580000000     0.243640000000    -0.017289   
C490     C      0.064830000000     0.300040000000     0.264710000000    -0.108101   
C491     C      0.019020000000     0.245790000000     0.217100000000    -0.0305192  
C492     C      0.088580000000     0.310330000000     0.278150000000     0.0781944  
C493     C      0.084670000000     0.270760000000     0.283650000000     0.151776   
C494     C      0.995530000000     0.234990000000     0.202360000000    -0.0414395  
C495     C      0.952990000000     0.229350000000     0.199270000000     0.0488152  
C496     C      0.050870000000     0.274780000000     0.259490000000     0.0664339  
C497     C      0.093240000000     0.253140000000     0.295070000000    -0.21244    
C498     C      0.277240000000     0.366390000000     0.351720000000    -0.133527   
C499     C      0.422320000000     0.478680000000     0.440520000000     0.0751711  
C500     C      0.424440000000     0.442260000000     0.434090000000     0.0759405  
C501     C      0.398110000000     0.466650000000     0.428250000000    -0.0979718  
C502     C      0.343010000000     0.432620000000     0.418460000000    -0.0381199  
C503     C      0.319160000000     0.420420000000     0.404750000000    -0.0335528  
C504     C      0.361530000000     0.429090000000     0.403690000000    -0.00771717 
C505     C      0.400300000000     0.429700000000     0.421640000000    -0.0977428  
C506     C      0.313290000000     0.404440000000     0.375930000000    -0.0153826  
C507     C      0.273860000000     0.402520000000     0.358320000000    -0.107383   
C508     C      0.331890000000     0.401110000000     0.360980000000    -0.0335278  
C509     C      0.249800000000     0.389430000000     0.345810000000     0.0788156  
C510     C      0.253070000000     0.353530000000     0.338600000000     0.152356   
C511     C      0.355700000000     0.413260000000     0.374710000000    -0.0382189  
C512     C      0.386890000000     0.441930000000     0.418230000000     0.0496989  
C513     C      0.287790000000     0.390970000000     0.361840000000     0.0655514  
C514     C      0.244010000000     0.327480000000     0.326180000000    -0.212427   
C515     C      0.519100000000     0.028970000000     0.813210000000    -0.134239   
C516     C      0.532380000000     0.014640000000     0.588450000000     0.0756213  
C517     C      0.493260000000     0.978860000000     0.594320000000     0.0760581  
C518     C      0.535370000000     0.016220000000     0.624960000000    -0.0985429  
C519     C      0.538770000000     0.004450000000     0.703610000000    -0.0386694  
C520     C      0.540130000000     0.007110000000     0.740240000000    -0.0341224  
C521     C      0.518220000000     0.001970000000     0.685250000000    -0.00828136 
C522     C      0.495450000000     0.980200000000     0.630890000000    -0.0985036  
C523     C      0.521240000000     0.007920000000     0.758860000000    -0.0161658  
C524     C      0.525690000000     0.994690000000     0.819020000000    -0.108263   
C525     C      0.500840000000     0.005680000000     0.740400000000    -0.033686   
C526     C      0.524050000000     0.996000000000     0.855440000000     0.078605   
C527     C      0.518260000000     0.030560000000     0.850060000000     0.151407   
C528     C      0.499250000000     0.002520000000     0.703990000000    -0.0382455  
C529     C      0.516530000000     0.999200000000     0.646560000000     0.0500838  
C530     C      0.522400000000     0.010770000000     0.797550000000     0.0660707  
C531     C      0.515320000000     0.051440000000     0.864370000000    -0.2116     
C532     C      0.474390000000     0.973730000000     0.126430000000    -0.133159   
C533     C      0.502580000000     0.018320000000     0.351620000000     0.0764069  
C534     C      0.470510000000     0.976830000000     0.354970000000     0.0762335  
C535     C      0.500010000000     0.018130000000     0.315110000000    -0.0984679  
C536     C      0.476790000000     0.012090000000     0.240540000000    -0.0385646  
C537     C      0.476200000000     0.011570000000     0.203780000000    -0.0333135  
C538     C      0.481270000000     0.995530000000     0.259390000000    -0.00805165 
C539     C      0.467890000000     0.975830000000     0.318420000000    -0.0986794  
C540     C      0.480690000000     0.994850000000     0.185040000000    -0.0152201  
C541     C      0.490200000000     0.017260000000     0.127200000000    -0.107055   
C542     C      0.485080000000     0.978220000000     0.204260000000    -0.0331541  
C543     C      0.492100000000     0.017580000000     0.090690000000     0.0800206  
C544     C      0.476630000000     0.974440000000     0.089540000000     0.153396   
C545     C      0.485090000000     0.978400000000     0.241000000000    -0.0384616  
C546     C      0.482830000000     0.996590000000     0.298170000000     0.0504957  
C547     C      0.481620000000     0.995250000000     0.145750000000     0.0649854  
C548     C      0.467100000000     0.950150000000     0.070660000000    -0.215015   
C549     C      0.609550000000     0.079440000000     0.019600000000    -0.133419   
C550     C      0.754330000000     0.112260000000     0.110640000000     0.0763308  
C551     C      0.754040000000     0.149810000000     0.112540000000     0.0762008  
C552     C      0.730380000000     0.100130000000     0.097440000000    -0.0978089  
C553     C      0.686560000000     0.083070000000     0.049000000000    -0.0378741  
C554     C      0.663110000000     0.071670000000     0.034010000000    -0.0337178  
C555     C      0.692950000000     0.100820000000     0.075560000000    -0.00770638 
C556     C      0.730120000000     0.138290000000     0.099210000000    -0.0978696  
C557     C      0.645550000000     0.077850000000     0.045060000000    -0.0154187  
C558     C      0.607790000000     0.040510000000     0.023330000000    -0.107564   
C559     C      0.651890000000     0.095580000000     0.071570000000    -0.0337044  
C560     C      0.584130000000     0.029310000000     0.009390000000     0.0788397  
C561     C      0.585770000000     0.067920000000     0.004940000000     0.15121    
C562     C      0.675290000000     0.106890000000     0.086710000000    -0.0381056  
C563     C      0.718050000000     0.113190000000     0.091130000000     0.0499484  
C564     C      0.620630000000     0.065770000000     0.029120000000     0.0655374  
C565     C      0.575920000000     0.084580000000     0.994030000000    -0.211796   
C566     C      0.178390000000     0.859330000000     0.646280000000    -0.134426   
C567     C      0.205960000000     0.843920000000     0.419030000000     0.0760644  
C568     C      0.172750000000     0.851720000000     0.418220000000     0.0766531  
C569     C      0.207290000000     0.845920000000     0.455680000000    -0.0970314  
C570     C      0.212520000000     0.858990000000     0.532980000000    -0.0377598  
C571     C      0.211940000000     0.858040000000     0.569760000000    -0.0340115  
C572     C      0.190770000000     0.851260000000     0.513470000000    -0.00760101 
C573     C      0.173970000000     0.854440000000     0.454710000000    -0.0973538  
C574     C      0.189740000000     0.849900000000     0.587830000000    -0.0157701  
C575     C      0.196670000000     0.833710000000     0.643910000000    -0.108424   
C576     C      0.168130000000     0.842690000000     0.568620000000    -0.0338461  
C577     C      0.193490000000     0.830240000000     0.680140000000     0.0798989  
C578     C      0.175600000000     0.855920000000     0.682940000000     0.152387   
C579     C      0.168580000000     0.843100000000     0.531930000000    -0.0375168  
C580     C      0.190920000000     0.850870000000     0.474190000000     0.049572   
C581     C      0.188730000000     0.848040000000     0.626620000000     0.0663878  
C582     C      0.162740000000     0.867590000000     0.701770000000    -0.212991   
C583     C      0.168950000000     0.793090000000     0.954150000000    -0.134323   
C584     C      0.150690000000     0.816070000000     0.182100000000     0.0762857  
C585     C      0.184750000000     0.809590000000     0.181690000000     0.0758208  
C586     C      0.148220000000     0.812930000000     0.145700000000    -0.097132   
C587     C      0.140060000000     0.796740000000     0.069900000000    -0.0378254  
C588     C      0.138940000000     0.796330000000     0.033150000000    -0.0340586  
C589     C      0.162750000000     0.805820000000     0.087450000000    -0.00756815 
C590     C      0.182440000000     0.805780000000     0.145360000000    -0.0972506  
C591     C      0.160360000000     0.804410000000     0.013170000000    -0.0157803  
C592     C      0.150710000000     0.818710000000     0.957430000000    -0.108547   
C593     C      0.182900000000     0.812820000000     0.030410000000    -0.0338693  
C594     C      0.152330000000     0.821140000000     0.920950000000     0.0799072  
C595     C      0.170080000000     0.795370000000     0.917270000000     0.151938   
C596     C      0.184150000000     0.813770000000     0.067090000000    -0.0377431  
C597     C      0.164310000000     0.807900000000     0.126630000000     0.0494276  
C598     C      0.159520000000     0.805000000000     0.974350000000     0.0662683  
C599     C      0.181970000000     0.783000000000     0.897730000000    -0.212639   
C600     C      0.281070000000     0.864840000000     0.839150000000    -0.132772   
C601     C      0.421450000000     0.979570000000     0.936840000000     0.0752277  
C602     C      0.424340000000     0.943390000000     0.934330000000     0.0753954  
C603     C      0.397710000000     0.966990000000     0.922890000000    -0.0982004  
C604     C      0.343040000000     0.931390000000     0.910600000000    -0.0382914  
C605     C      0.319730000000     0.918610000000     0.895250000000    -0.0335752  
C606     C      0.362490000000     0.928750000000     0.897520000000    -0.00790719 
C607     C      0.400740000000     0.930320000000     0.920090000000    -0.0985347  
C608     C      0.315390000000     0.903030000000     0.866300000000    -0.0153819  
C609     C      0.275710000000     0.899730000000     0.846780000000    -0.107373   
C610     C      0.334980000000     0.900610000000     0.853040000000    -0.0336821  
C611     C      0.251970000000     0.886060000000     0.833460000000     0.0785732  
C612     C      0.257150000000     0.851350000000     0.825200000000     0.149795   
C613     C      0.358230000000     0.913250000000     0.868540000000    -0.0384165  
C614     C      0.387230000000     0.942160000000     0.913880000000     0.0498574  
C615     C      0.290450000000     0.889060000000     0.850410000000     0.0649289  
C616     C      0.249060000000     0.825430000000     0.813120000000    -0.210543   
C617     C      0.822930000000     0.642320000000     0.796600000000    -0.134534   
C618     C      0.806010000000     0.656250000000     0.019220000000     0.0761453  
C619     C      0.846290000000     0.690580000000     0.015440000000     0.0766289  
C620     C      0.803720000000     0.655650000000     0.982620000000    -0.0987766  
C621     C      0.802830000000     0.668570000000     0.903980000000    -0.038478   
C622     C      0.802090000000     0.665990000000     0.867360000000    -0.0340048  
C623     C      0.822640000000     0.670130000000     0.923300000000    -0.0084285  
C624     C      0.844780000000     0.690220000000     0.978820000000    -0.0989779  
C625     C      0.820870000000     0.664370000000     0.849730000000    -0.0162685  
C626     C      0.817990000000     0.677490000000     0.788770000000    -0.10875    
C627     C      0.840600000000     0.665850000000     0.869120000000    -0.0336787  
C628     C      0.819940000000     0.675610000000     0.752540000000     0.0788421  
C629     C      0.824350000000     0.640320000000     0.759940000000     0.151875   
C630     C      0.841570000000     0.668900000000     0.905510000000    -0.0381549  
C631     C      0.823500000000     0.672350000000     0.962050000000     0.0505861  
C632     C      0.820170000000     0.661150000000     0.811160000000     0.0663773  
C633     C      0.827710000000     0.619390000000     0.746920000000    -0.212279   
C634     C      0.860920000000     0.651000000000     0.482260000000    -0.134032   
C635     C      0.868370000000     0.681430000000     0.252680000000     0.0763328  
C636     C      0.828910000000     0.645980000000     0.256720000000     0.0760906  
C637     C      0.871260000000     0.681590000000     0.289100000000    -0.0980186  
C638     C      0.865200000000     0.687330000000     0.366800000000    -0.0378607  
C639     C      0.866270000000     0.688170000000     0.403500000000    -0.0335479  
C640     C      0.854420000000     0.664700000000     0.348980000000    -0.00766325 
C641     C      0.831130000000     0.645680000000     0.293240000000    -0.097867   
C642     C      0.856460000000     0.666400000000     0.423330000000    -0.0153533  
C643     C      0.851870000000     0.683840000000     0.480240000000    -0.107575   
C644     C      0.845950000000     0.643790000000     0.405500000000    -0.0334646  
C645     C      0.850580000000     0.683380000000     0.516830000000     0.0797343  
C646     C      0.859840000000     0.651000000000     0.519220000000     0.153226   
C647     C      0.845000000000     0.642950000000     0.368790000000    -0.0381547  
C648     C      0.852360000000     0.663830000000     0.309960000000     0.0499595  
C649     C      0.856540000000     0.667180000000     0.462440000000     0.0656609  
C650     C      0.866630000000     0.634110000000     0.538500000000    -0.213589   
C651     C      0.731710000000     0.632510000000     0.594750000000    -0.133644   
C652     C      0.585650000000     0.562420000000     0.505150000000     0.0759496  
C653     C      0.587640000000     0.526050000000     0.497020000000     0.076343   
C654     C      0.609680000000     0.574580000000     0.518150000000    -0.0974918  
C655     C      0.653580000000     0.589300000000     0.566270000000    -0.0379863  
C656     C      0.676990000000     0.600240000000     0.581340000000    -0.0335138  
C657     C      0.648040000000     0.574320000000     0.536350000000    -0.00763046 
C658     C      0.611690000000     0.537660000000     0.509780000000    -0.0979372  
C659     C      0.695450000000     0.596510000000     0.566810000000    -0.0153425  
C660     C      0.733140000000     0.595460000000     0.585950000000    -0.107582   
C661     C      0.689930000000     0.581580000000     0.536820000000    -0.0335335  
C662     C      0.756830000000     0.607020000000     0.599930000000     0.0787916  
C663     C      0.755470000000     0.643780000000     0.609350000000     0.15253    
C664     C      0.666500000000     0.570610000000     0.521780000000    -0.0380562  
C665     C      0.622920000000     0.562120000000     0.520980000000     0.0499443  
C666     C      0.720430000000     0.608300000000     0.582680000000     0.0655672  
C667     C      0.765340000000     0.669460000000     0.623930000000    -0.212848   
C668     C      0.063020000000     0.786540000000     0.762220000000    -0.134147   
C669     C      0.918400000000     0.678880000000     0.668890000000     0.0743045  
C670     C      0.920420000000     0.717550000000     0.670080000000     0.0756554  
C671     C      0.942610000000     0.689560000000     0.681000000000    -0.0975577  
C672     C      0.988290000000     0.714120000000     0.726940000000    -0.0411421  
C673     C      0.011910000000     0.725690000000     0.741540000000    -0.0306717  
C674     C      0.981480000000     0.726510000000     0.702480000000    -0.00609827 
C675     C      0.944530000000     0.728760000000     0.682480000000    -0.0975575  
C676     C      0.029110000000     0.749960000000     0.732270000000    -0.0173221  
C677     C      0.068170000000     0.751800000000     0.751420000000    -0.107831   
C678     C      0.022510000000     0.762180000000     0.707380000000    -0.0306759  
C679     C      0.091870000000     0.764900000000     0.765290000000     0.0782266  
C680     C      0.086700000000     0.799290000000     0.777010000000     0.15057    
C681     C      0.999050000000     0.750560000000     0.692510000000    -0.0414671  
C682     C      0.955970000000     0.714790000000     0.688280000000     0.0485401  
C683     C      0.053750000000     0.762850000000     0.748920000000     0.0662838  
C684     C      0.094430000000     0.824390000000     0.792290000000    -0.210706   
H1       H      0.672400000000     0.904150000000     0.779990000000     0.0197726  
H2       H      0.829830000000     0.096440000000     0.676710000000     0.0193233  
H3       H      0.712020000000     0.967220000000     0.703170000000     0.0353884  
H4       H      0.791270000000     0.032330000000     0.751830000000     0.0342398  
H5       H      0.811260000000     0.055140000000     0.698570000000     0.0521269  
H6       H      0.772110000000     0.991030000000     0.776740000000     0.0355285  
H7       H      0.740160000000     0.049020000000     0.693340000000     0.0587379  
H8       H      0.691910000000     0.945780000000     0.757710000000     0.0503781  
H9       H      0.762100000000     0.948980000000     0.761350000000     0.0504638  
H10      H      0.731220000000     0.008380000000     0.678090000000     0.0333024  
H11      H      0.742070000000     0.907340000000     0.784060000000     0.0206316  
H12      H      0.757270000000     0.099760000000     0.637670000000     0.0796762  
H13      H      0.733840000000     0.077610000000     0.665220000000     0.0646141  
H14      H      0.754960000000     0.106860000000     0.683650000000     0.0787804  
H15      H      0.935370000000     0.429790000000     0.508990000000     0.019872   
H16      H      0.900240000000     0.236690000000     0.610180000000     0.0201635  
H17      H      0.913430000000     0.367320000000     0.587560000000     0.0353813  
H18      H      0.924730000000     0.301060000000     0.536310000000     0.0341116  
H19      H      0.922900000000     0.277850000000     0.587880000000     0.0522576  
H20      H      0.946610000000     0.342200000000     0.510880000000     0.0354258  
H21      H      0.859590000000     0.286190000000     0.600780000000     0.0584601  
H22      H      0.913270000000     0.388280000000     0.532000000000     0.0501563  
H23      H      0.979800000000     0.384330000000     0.526840000000     0.0496488  
H24      H      0.891930000000     0.326400000000     0.613460000000     0.0331688  
H25      H      0.001420000000     0.425840000000     0.503730000000     0.021092   
H26      H      0.827400000000     0.236430000000     0.657680000000     0.0800691  
H27      H      0.825350000000     0.258200000000     0.630170000000     0.0641527  
H28      H      0.816000000000     0.228470000000     0.612560000000     0.0782132  
H29      H      0.077740000000     0.570210000000     0.443310000000     0.0199486  
H30      H      0.110440000000     0.761300000000     0.336470000000     0.0208557  
H31      H      0.098710000000     0.631550000000     0.363210000000     0.0357893  
H32      H      0.087410000000     0.698330000000     0.412500000000     0.0346597  
H33      H      0.088280000000     0.720430000000     0.360060000000     0.0532351  
H34      H      0.066170000000     0.657650000000     0.439470000000     0.035982   
H35      H      0.151820000000     0.712510000000     0.346710000000     0.0588824  
H36      H      0.099570000000     0.611490000000     0.419370000000     0.0505172  
H37      H      0.032960000000     0.615260000000     0.424890000000     0.0508933  
H38      H      0.119570000000     0.671990000000     0.335790000000     0.0335906  
H39      H      0.011630000000     0.574020000000     0.448910000000     0.0199674  
H40      H      0.194960000000     0.769350000000     0.332620000000     0.0790179  
H41      H      0.184900000000     0.739700000000     0.314040000000     0.0648268  
H42      H      0.182780000000     0.761980000000     0.287840000000     0.0805902  
H43      H      0.672600000000     0.761740000000     0.839710000000     0.0207373  
H44      H      0.511250000000     0.569770000000     0.936880000000     0.02048    
H45      H      0.624540000000     0.677590000000     0.843100000000     0.0353915  
H46      H      0.559650000000     0.652980000000     0.933750000000     0.0341826  
H47      H      0.531520000000     0.611090000000     0.915220000000     0.0526647  
H48      H      0.579780000000     0.694690000000     0.910510000000     0.0357742  
H49      H      0.600990000000     0.613670000000     0.920670000000     0.0588434  
H50      H      0.652670000000     0.719760000000     0.860800000000     0.0505615  
H51      H      0.582770000000     0.717190000000     0.856940000000     0.0503275  
H52      H      0.604380000000     0.635820000000     0.866380000000     0.0339688  
H53      H      0.603280000000     0.759320000000     0.836480000000     0.0200496  
H54      H      0.582380000000     0.554000000000     0.927970000000     0.078624   
H55      H      0.605400000000     0.582880000000     0.945150000000     0.0649421  
H56      H      0.582000000000     0.562060000000     0.974070000000     0.080437   
H57      H      0.181000000000     0.902690000000     0.269170000000     0.0208206  
H58      H      0.338040000000     0.096000000000     0.168900000000     0.0202226  
H59      H      0.228030000000     0.985660000000     0.261230000000     0.0353091  
H60      H      0.295370000000     0.010270000000     0.174620000000     0.0345639  
H61      H      0.320930000000     0.055320000000     0.193270000000     0.0533861  
H62      H      0.276140000000     0.969190000000     0.200330000000     0.0357562  
H63      H      0.248200000000     0.042040000000     0.172560000000     0.05935    
H64      H      0.201340000000     0.944160000000     0.246770000000     0.0503268  
H65      H      0.270810000000     0.945800000000     0.252080000000     0.0507724  
H66      H      0.246780000000     0.026320000000     0.234600000000     0.034577   
H67      H      0.249660000000     0.903810000000     0.273250000000     0.020831   
H68      H      0.265850000000     0.091430000000     0.113370000000     0.0800129  
H69      H      0.241260000000     0.067760000000     0.137590000000     0.0646579  
H70      H      0.258090000000     0.097550000000     0.157130000000     0.0781641  
H71      H      0.433150000000     0.428060000000     0.001920000000     0.0206962  
H72      H      0.401230000000     0.236080000000     0.102540000000     0.0180188  
H73      H      0.394570000000     0.343360000000     0.008830000000     0.0352679  
H74      H      0.436350000000     0.319330000000     0.098130000000     0.0337708  
H75      H      0.422060000000     0.277360000000     0.080650000000     0.0518764  
H76      H      0.457840000000     0.360550000000     0.073260000000     0.0355473  
H77      H      0.355400000000     0.280270000000     0.088370000000     0.0589315  
H78      H      0.410440000000     0.386570000000     0.025060000000     0.0505286  
H79      H      0.475850000000     0.380720000000     0.017390000000     0.0499598  
H80      H      0.373060000000     0.302000000000     0.033610000000     0.0338574  
H81      H      0.498090000000     0.422240000000     0.994840000000     0.0190963  
H82      H      0.323730000000     0.228040000000     0.142430000000     0.0805199  
H83      H      0.321190000000     0.250120000000     0.116240000000     0.0652022  
H84      H      0.314270000000     0.221560000000     0.096410000000     0.0787504  
H85      H      0.648750000000     0.789060000000     0.409210000000     0.0206294  
H86      H      0.700210000000     0.815550000000     0.709720000000     0.0204373  
H87      H      0.636550000000     0.794890000000     0.523380000000     0.0352779  
H88      H      0.712140000000     0.836210000000     0.595900000000     0.0339347  
H89      H      0.702260000000     0.811670000000     0.647280000000     0.0523322  
H90      H      0.715680000000     0.837460000000     0.532210000000     0.0348251  
H91      H      0.637370000000     0.817340000000     0.634350000000     0.0589095  
H92      H      0.647980000000     0.782790000000     0.472030000000     0.0503105  
H93      H      0.709240000000     0.856470000000     0.483590000000     0.0501617  
H94      H      0.633150000000     0.792020000000     0.586920000000     0.0333336  
H95      H      0.710220000000     0.861640000000     0.420520000000     0.0196087  
H96      H      0.634240000000     0.838310000000     0.713810000000     0.0794889  
H97      H      0.614760000000     0.818210000000     0.680210000000     0.0648308  
H98      H      0.616960000000     0.805020000000     0.720440000000     0.0804972  
H99      H      0.645390000000     0.850990000000     0.913200000000     0.0205699  
H100     H      0.645150000000     0.811770000000     0.201230000000     0.0198676  
H101     H      0.672340000000     0.885080000000     0.026060000000     0.0357252  
H102     H      0.681290000000     0.822540000000     0.094130000000     0.0352297  
H103     H      0.646430000000     0.814040000000     0.138080000000     0.0538549  
H104     H      0.683950000000     0.822920000000     0.030030000000     0.0366161  
H105     H      0.698460000000     0.891190000000     0.143270000000     0.0595155  
H106     H      0.646010000000     0.855540000000     0.976640000000     0.051023   
H107     H      0.712270000000     0.851120000000     0.981580000000     0.051222   
H108     H      0.669760000000     0.884740000000     0.090470000000     0.0339928  
H109     H      0.711340000000     0.846820000000     0.918100000000     0.0208229  
H110     H      0.717250000000     0.897900000000     0.223880000000     0.0778844  
H111     H      0.705290000000     0.912530000000     0.196010000000     0.065817   
H112     H      0.688740000000     0.897450000000     0.234740000000     0.080605   
H113     H      0.839320000000     0.741390000000     0.163990000000     0.0205821  
H114     H      0.680510000000     0.771820000000     0.274670000000     0.0207062  
H115     H      0.800970000000     0.765900000000     0.242810000000     0.0358135  
H116     H      0.720910000000     0.751320000000     0.196500000000     0.034364   
H117     H      0.700620000000     0.751370000000     0.250200000000     0.0530863  
H118     H      0.740540000000     0.730250000000     0.169740000000     0.0358999  
H119     H      0.770350000000     0.817520000000     0.259550000000     0.0586148  
H120     H      0.820580000000     0.764330000000     0.186530000000     0.0506475  
H121     H      0.750080000000     0.697830000000     0.186750000000     0.0511286  
H122     H      0.781190000000     0.786690000000     0.270040000000     0.0335076  
H123     H      0.769230000000     0.675450000000     0.164110000000     0.0207255  
H124     H      0.751420000000     0.847500000000     0.318690000000     0.0803242  
H125     H      0.775080000000     0.851070000000     0.289570000000     0.0644818  
H126     H      0.752720000000     0.858390000000     0.273690000000     0.0784839  
H127     H      0.669490000000     0.905560000000     0.343790000000     0.0195246  
H128     H      0.504160000000     0.928840000000     0.443970000000     0.020144   
H129     H      0.625520000000     0.922870000000     0.421220000000     0.0356849  
H130     H      0.545790000000     0.905830000000     0.370260000000     0.0342717  
H131     H      0.524300000000     0.907260000000     0.423160000000     0.0527428  
H132     H      0.567180000000     0.885870000000     0.345290000000     0.0355312  
H133     H      0.594130000000     0.973550000000     0.430230000000     0.059108   
H134     H      0.647200000000     0.924660000000     0.366780000000     0.0504444  
H135     H      0.579720000000     0.855290000000     0.359330000000     0.0506327  
H136     H      0.604120000000     0.942650000000     0.446310000000     0.0335657  
H137     H      0.602550000000     0.836670000000     0.335910000000     0.0206717  
H138     H      0.573860000000     0.005510000000     0.484820000000     0.0800277  
H139     H      0.598660000000     0.007390000000     0.459920000000     0.0650647  
H140     H      0.578000000000     0.015210000000     0.438820000000     0.079264   
H141     H      0.033770000000     0.547700000000     0.875040000000     0.0205803  
H142     H      0.985860000000     0.523890000000     0.577950000000     0.0199087  
H143     H      0.004680000000     0.482210000000     0.759000000000     0.036836   
H144     H      0.013570000000     0.554560000000     0.693400000000     0.0345948  
H145     H      0.984820000000     0.527410000000     0.640880000000     0.0531848  
H146     H      0.009250000000     0.553090000000     0.757730000000     0.0359249  
H147     H      0.044130000000     0.512630000000     0.651380000000     0.0599992  
H148     H      0.035870000000     0.551900000000     0.811350000000     0.0514724  
H149     H      0.971380000000     0.480320000000     0.802410000000     0.0513005  
H150     H      0.009310000000     0.483840000000     0.695080000000     0.0352253  
H151     H      0.969440000000     0.476740000000     0.865980000000     0.0205105  
H152     H      0.063760000000     0.522800000000     0.564770000000     0.0807911  
H153     H      0.063970000000     0.507940000000     0.604470000000     0.0653756  
H154     H      0.042860000000     0.489850000000     0.570810000000     0.0798085  
H155     H      0.974510000000     0.452600000000     0.075900000000     0.0204624  
H156     H      0.028230000000     0.477250000000     0.374840000000     0.020232   
H157     H      0.963620000000     0.461220000000     0.190310000000     0.0350007  
H158     H      0.040010000000     0.497580000000     0.261340000000     0.0346037  
H159     H      0.028650000000     0.472540000000     0.312390000000     0.0519074  
H160     H      0.042850000000     0.498260000000     0.197610000000     0.0351507  
H161     H      0.967910000000     0.485340000000     0.301790000000     0.0583752  
H162     H      0.973330000000     0.446860000000     0.138920000000     0.0503175  
H163     H      0.037660000000     0.518680000000     0.149270000000     0.0510445  
H164     H      0.960740000000     0.458970000000     0.254030000000     0.0337593  
H165     H      0.038890000000     0.523360000000     0.086120000000     0.020884   
H166     H      0.968890000000     0.508450000000     0.381540000000     0.0794347  
H167     H      0.947740000000     0.489370000000     0.348570000000     0.0647207  
H168     H      0.948980000000     0.475440000000     0.388650000000     0.0802717  
H169     H      0.932830000000     0.501700000000     0.001300000000     0.0205901  
H170     H      0.904120000000     0.662980000000     0.105500000000     0.020726   
H171     H      0.908670000000     0.541320000000     0.078230000000     0.0356183  
H172     H      0.927460000000     0.622570000000     0.031310000000     0.0341519  
H173     H      0.925120000000     0.642630000000     0.083870000000     0.0528122  
H174     H      0.948610000000     0.602200000000     0.007150000000     0.0356823  
H175     H      0.858080000000     0.573380000000     0.088370000000     0.0585557  
H176     H      0.910930000000     0.521820000000     0.022510000000     0.0504119  
H177     H      0.979250000000     0.590590000000     0.026190000000     0.0505995  
H178     H      0.887790000000     0.561800000000     0.102870000000     0.0333717  
H179     H      0.000640000000     0.570030000000     0.004790000000     0.0225976  
H180     H      0.817340000000     0.592190000000     0.097490000000     0.0793133  
H181     H      0.823140000000     0.568820000000     0.113470000000     0.064454   
H182     H      0.825930000000     0.591790000000     0.143370000000     0.0803019  
H183     H      0.375280000000     0.182710000000     0.738870000000     0.0191754  
H184     H      0.296570000000     0.136060000000     0.025670000000     0.0175524  
H185     H      0.361340000000     0.187510000000     0.851630000000     0.0351284  
H186     H      0.309900000000     0.108230000000     0.912900000000     0.0343513  
H187     H      0.296020000000     0.132300000000     0.962330000000     0.0532275  
H188     H      0.311450000000     0.108970000000     0.848580000000     0.0347186  
H189     H      0.373960000000     0.161730000000     0.962000000000     0.0595125  
H190     H      0.375570000000     0.178070000000     0.801780000000     0.049695   
H191     H      0.299530000000     0.120550000000     0.797520000000     0.05       
H192     H      0.360770000000     0.186170000000     0.915480000000     0.0349634  
H193     H      0.300460000000     0.124670000000     0.734190000000     0.0203254  
H194     H      0.383290000000     0.155760000000     0.048280000000     0.0794466  
H195     H      0.397520000000     0.175370000000     0.011460000000     0.0644686  
H196     H      0.385920000000     0.186050000000     0.045740000000     0.0790035  
H197     H      0.372520000000     0.187950000000     0.239940000000     0.0200272  
H198     H      0.295200000000     0.154770000000     0.527040000000     0.0199248  
H199     H      0.359180000000     0.169740000000     0.353030000000     0.0353157  
H200     H      0.304630000000     0.194460000000     0.412540000000     0.0344823  
H201     H      0.293610000000     0.157030000000     0.463720000000     0.0539398  
H202     H      0.305770000000     0.194090000000     0.348200000000     0.0343155  
H203     H      0.370140000000     0.210930000000     0.461390000000     0.0596081  
H204     H      0.372260000000     0.192910000000     0.302700000000     0.0500185  
H205     H      0.295040000000     0.170060000000     0.297660000000     0.0494404  
H206     H      0.358990000000     0.171740000000     0.416810000000     0.0352993  
H207     H      0.296450000000     0.166870000000     0.234330000000     0.0185576  
H208     H      0.385630000000     0.202310000000     0.544050000000     0.0756957  
H209     H      0.393940000000     0.224940000000     0.510530000000     0.0636011  
H210     H      0.378460000000     0.227050000000     0.548400000000     0.0791885  
H211     H      0.494550000000     0.066170000000     0.495010000000     0.0204436  
H212     H      0.335970000000     0.097710000000     0.602600000000     0.0209395  
H213     H      0.454920000000     0.088050000000     0.573800000000     0.0355684  
H214     H      0.372870000000     0.068660000000     0.529400000000     0.0346152  
H215     H      0.354170000000     0.074300000000     0.581980000000     0.05305    
H216     H      0.392680000000     0.046820000000     0.505370000000     0.0360866  
H217     H      0.424890000000     0.139630000000     0.579360000000     0.058236   
H218     H      0.473340000000     0.086700000000     0.516890000000     0.0504505  
H219     H      0.406190000000     0.016940000000     0.522690000000     0.0511295  
H220     H      0.435080000000     0.109570000000     0.598170000000     0.0334605  
H221     H      0.427940000000     0.996820000000     0.500470000000     0.0208553  
H222     H      0.412190000000     0.176610000000     0.630240000000     0.0787528  
H223     H      0.431370000000     0.177070000000     0.595520000000     0.0629859  
H224     H      0.406650000000     0.182120000000     0.584750000000     0.0752076  
H225     H      0.007080000000     0.431330000000     0.943200000000     0.0210376  
H226     H      0.168200000000     0.400200000000     0.845530000000     0.0199255  
H227     H      0.050330000000     0.412870000000     0.865980000000     0.0359921  
H228     H      0.127820000000     0.425040000000     0.919020000000     0.0343513  
H229     H      0.149640000000     0.423150000000     0.867010000000     0.0526688  
H230     H      0.107630000000     0.446170000000     0.944180000000     0.0357997  
H231     H      0.078130000000     0.359530000000     0.855600000000     0.05919    
H232     H      0.028220000000     0.410930000000     0.920520000000     0.0510582  
H233     H      0.097230000000     0.478580000000     0.930130000000     0.050751   
H234     H      0.070560000000     0.392030000000     0.840600000000     0.0337615  
H235     H      0.075540000000     0.498520000000     0.953110000000     0.0208117  
H236     H      0.091430000000     0.315860000000     0.845100000000     0.0787399  
H237     H      0.072140000000     0.325700000000     0.824670000000     0.0651026  
H238     H      0.096580000000     0.326890000000     0.799680000000     0.0802252  
H239     H      0.265530000000     0.170720000000     0.660470000000     0.0205254  
H240     H      0.237280000000     0.328440000000     0.780110000000     0.0195242  
H241     H      0.245120000000     0.208920000000     0.744850000000     0.0358465  
H242     H      0.261510000000     0.290540000000     0.703020000000     0.0343122  
H243     H      0.259220000000     0.309600000000     0.756370000000     0.0524218  
H244     H      0.282450000000     0.271090000000     0.675120000000     0.0358497  
H245     H      0.193980000000     0.238870000000     0.762700000000     0.0586177  
H246     H      0.244750000000     0.190860000000     0.685630000000     0.0506995  
H247     H      0.313890000000     0.258720000000     0.690520000000     0.0509336  
H248     H      0.224670000000     0.228520000000     0.773430000000     0.0331706  
H249     H      0.334240000000     0.238080000000     0.665310000000     0.020109   
H250     H      0.151670000000     0.254400000000     0.775660000000     0.0789008  
H251     H      0.159760000000     0.232740000000     0.792200000000     0.0643881  
H252     H      0.161950000000     0.255940000000     0.821100000000     0.0798716  
H253     H      0.499070000000     0.459380000000     0.570390000000     0.0203776  
H254     H      0.469170000000     0.496850000000     0.865820000000     0.0193979  
H255     H      0.473040000000     0.442370000000     0.684590000000     0.0347284  
H256     H      0.500630000000     0.518510000000     0.754070000000     0.0353212  
H257     H      0.465140000000     0.494760000000     0.802690000000     0.0537488  
H258     H      0.500920000000     0.520730000000     0.690260000000     0.0354658  
H259     H      0.510850000000     0.462090000000     0.796570000000     0.0596938  
H260     H      0.496410000000     0.454740000000     0.633650000000     0.0498999  
H261     H      0.477430000000     0.511930000000     0.640260000000     0.05024    
H262     H      0.474280000000     0.440730000000     0.748750000000     0.0341289  
H263     H      0.481820000000     0.517070000000     0.577350000000     0.0204184  
H264     H      0.507770000000     0.448200000000     0.888710000000     0.080134   
H265     H      0.520030000000     0.447020000000     0.847050000000     0.0657268  
H266     H      0.536560000000     0.474160000000     0.873340000000     0.0781005  
H267     H      0.490140000000     0.523830000000     0.073820000000     0.0204055  
H268     H      0.532120000000     0.491130000000     0.362960000000     0.0197031  
H269     H      0.483750000000     0.507190000000     0.187780000000     0.0354492  
H270     H      0.561840000000     0.531570000000     0.250660000000     0.0347332  
H271     H      0.536330000000     0.494400000000     0.299720000000     0.0538088  
H272     H      0.561590000000     0.531780000000     0.186360000000     0.0346841  
H273     H      0.509850000000     0.545380000000     0.298720000000     0.0598953  
H274     H      0.494240000000     0.529500000000     0.136670000000     0.0501565  
H275     H      0.549550000000     0.507740000000     0.136250000000     0.0496576  
H276     H      0.484700000000     0.508630000000     0.251630000000     0.0352726  
H277     H      0.546060000000     0.503880000000     0.072970000000     0.0194298  
H278     H      0.516080000000     0.560500000000     0.385270000000     0.0803006  
H279     H      0.497090000000     0.556370000000     0.348090000000     0.0654537  
H280     H      0.485140000000     0.533900000000     0.382130000000     0.0799622  
H281     H      0.809130000000     0.181140000000     0.755310000000     0.0191243  
H282     H      0.842740000000     0.146930000000     0.036780000000     0.0202133  
H283     H      0.836040000000     0.212290000000     0.865840000000     0.0346476  
H284     H      0.871910000000     0.166960000000     0.924850000000     0.0336301  
H285     H      0.845270000000     0.149800000000     0.973960000000     0.052986   
H286     H      0.869190000000     0.166390000000     0.861070000000     0.035189   
H287     H      0.864370000000     0.225550000000     0.979610000000     0.0587064  
H288     H      0.814110000000     0.185560000000     0.818430000000     0.0500953  
H289     H      0.884730000000     0.190070000000     0.808920000000     0.0498484  
H290     H      0.837430000000     0.211650000000     0.929790000000     0.0336137  
H291     H      0.878780000000     0.184760000000     0.745970000000     0.0200403  
H292     H      0.877930000000     0.232310000000     0.071080000000     0.0807765  
H293     H      0.874760000000     0.246440000000     0.032420000000     0.0655694  
H294     H      0.848340000000     0.229440000000     0.059790000000     0.0788997  
H295     H      0.825490000000     0.127520000000     0.247580000000     0.0204497  
H296     H      0.796500000000     0.168380000000     0.541880000000     0.0173061  
H297     H      0.850350000000     0.154790000000     0.361680000000     0.036497   
H298     H      0.777750000000     0.144500000000     0.427770000000     0.0329148  
H299     H      0.793300000000     0.166650000000     0.478900000000     0.0518171  
H300     H      0.778170000000     0.147010000000     0.363640000000     0.035896   
H301     H      0.835650000000     0.130010000000     0.475020000000     0.0583782  
H302     H      0.821550000000     0.122570000000     0.311000000000     0.0510434  
H303     H      0.808250000000     0.183390000000     0.317340000000     0.0513915  
H304     H      0.850910000000     0.153960000000     0.425610000000     0.0334374  
H305     H      0.812920000000     0.188420000000     0.253840000000     0.0204091  
H306     H      0.831810000000     0.117440000000     0.567370000000     0.0795597  
H307     H      0.843370000000     0.114590000000     0.526000000000     0.0657771  
H308     H      0.861220000000     0.142000000000     0.551320000000     0.0785063  
H309     H      0.122770000000     0.302670000000     0.710100000000     0.0185915  
H310     H      0.165280000000     0.299830000000     0.421440000000     0.0182948  
H311     H      0.117150000000     0.327600000000     0.594860000000     0.0352607  
H312     H      0.188720000000     0.333950000000     0.530190000000     0.0350025  
H313     H      0.163120000000     0.300210000000     0.484690000000     0.053319   
H314     H      0.190150000000     0.337070000000     0.594270000000     0.0363923  
H315     H      0.139270000000     0.353320000000     0.479220000000     0.0596126  
H316     H      0.119230000000     0.301890000000     0.646440000000     0.0505003  
H317     H      0.190560000000     0.367050000000     0.640300000000     0.0511835  
H318     H      0.115750000000     0.324520000000     0.530500000000     0.0336636  
H319     H      0.193550000000     0.367520000000     0.703900000000     0.0204735  
H320     H      0.124770000000     0.344940000000     0.387260000000     0.0800054  
H321     H      0.125800000000     0.361080000000     0.426210000000     0.0657269  
H322     H      0.152810000000     0.373080000000     0.399320000000     0.0788082  
H323     H      0.185120000000     0.301060000000     0.210370000000     0.0183768  
H324     H      0.140880000000     0.299410000000     0.920980000000     0.018348   
H325     H      0.215950000000     0.325240000000     0.095150000000     0.0350807  
H326     H      0.151880000000     0.333310000000     0.029780000000     0.0351707  
H327     H      0.143210000000     0.299450000000     0.984230000000     0.0532488  
H328     H      0.153460000000     0.336410000000     0.093870000000     0.0365469  
H329     H      0.220460000000     0.351340000000     0.979520000000     0.0596138  
H330     H      0.187770000000     0.299970000000     0.146720000000     0.0502112  
H331     H      0.183360000000     0.366140000000     0.139860000000     0.0513238  
H332     H      0.214390000000     0.322190000000     0.030790000000     0.0335436  
H333     H      0.180970000000     0.366930000000     0.203430000000     0.0205624  
H334     H      0.227320000000     0.371560000000     0.899860000000     0.0788855  
H335     H      0.241750000000     0.358830000000     0.926640000000     0.0657878  
H336     H      0.226540000000     0.343130000000     0.887470000000     0.0800623  
H337     H      0.907850000000     0.173310000000     0.172900000000     0.0204152  
H338     H      0.098680000000     0.330160000000     0.280700000000     0.0195885  
H339     H      0.990920000000     0.221590000000     0.181620000000     0.0354005  
H340     H      0.013800000000     0.284000000000     0.275620000000     0.0336811  
H341     H      0.057710000000     0.312000000000     0.257470000000     0.0530779  
H342     H      0.972580000000     0.264810000000     0.250460000000     0.0360128  
H343     H      0.049850000000     0.240400000000     0.266370000000     0.0591446  
H344     H      0.949350000000     0.193240000000     0.195410000000     0.0497371  
H345     H      0.949510000000     0.261980000000     0.199010000000     0.050026   
H346     H      0.031860000000     0.240400000000     0.207460000000     0.0337744  
H347     H      0.907590000000     0.241250000000     0.177520000000     0.0195622  
H348     H      0.099790000000     0.256850000000     0.322720000000     0.0800507  
H349     H      0.078180000000     0.233700000000     0.294300000000     0.0647282  
H350     H      0.107910000000     0.254670000000     0.277200000000     0.0787957  
H351     H      0.434160000000     0.432090000000     0.436000000000     0.0208558  
H352     H      0.239780000000     0.399330000000     0.344370000000     0.0199243  
H353     H      0.369650000000     0.410500000000     0.362300000000     0.0357097  
H354     H      0.305190000000     0.423140000000     0.417190000000     0.0342186  
H355     H      0.281470000000     0.421690000000     0.365200000000     0.0526359  
H356     H      0.346840000000     0.444490000000     0.441040000000     0.0355338  
H357     H      0.287800000000     0.357110000000     0.354260000000     0.0590656  
H358     H      0.392190000000     0.410470000000     0.414780000000     0.0507389  
H359     H      0.388490000000     0.476870000000     0.425830000000     0.0500632  
H360     H      0.328130000000     0.389290000000     0.338360000000     0.0337018  
H361     H      0.430390000000     0.497910000000     0.447440000000     0.0192768  
H362     H      0.236040000000     0.324820000000     0.299370000000     0.0799749  
H363     H      0.259130000000     0.323200000000     0.324280000000     0.0648632  
H364     H      0.230290000000     0.314180000000     0.344980000000     0.0784873  
H365     H      0.476460000000     0.964040000000     0.583300000000     0.0208325  
H366     H      0.525970000000     0.982460000000     0.870700000000     0.0202357  
H367     H      0.483320000000     0.000840000000     0.690360000000     0.0367437  
H368     H      0.556040000000     0.008840000000     0.753970000000     0.0340574  
H369     H      0.528490000000     0.980460000000     0.807700000000     0.0533446  
H370     H      0.553590000000     0.004050000000     0.689680000000     0.0354244  
H371     H      0.517130000000     0.041910000000     0.796560000000     0.0594404  
H372     H      0.480610000000     0.966570000000     0.646860000000     0.0514204  
H373     H      0.551930000000     0.031190000000     0.636250000000     0.0503803  
H374     H      0.485970000000     0.006070000000     0.754250000000     0.0352879  
H375     H      0.547130000000     0.028550000000     0.572650000000     0.0188691  
H376     H      0.530000000000     0.062230000000     0.883830000000     0.078193   
H377     H      0.517050000000     0.064600000000     0.843480000000     0.0641021  
H378     H      0.496830000000     0.044150000000     0.876290000000     0.0787034  
H379     H      0.458720000000     0.960270000000     0.369690000000     0.0204778  
H380     H      0.499630000000     0.035350000000     0.077960000000     0.01798    
H381     H      0.488830000000     0.965620000000     0.255080000000     0.036626   
H382     H      0.472190000000     0.024300000000     0.190160000000     0.0333621  
H383     H      0.496320000000     0.034500000000     0.140740000000     0.0520286  
H384     H      0.473630000000     0.025350000000     0.254300000000     0.0362713  
H385     H      0.466660000000     0.956240000000     0.139930000000     0.0585873  
H386     H      0.454330000000     0.958900000000     0.306060000000     0.0513287  
H387     H      0.511900000000     0.034510000000     0.300120000000     0.051501   
H388     H      0.489150000000     0.965420000000     0.191040000000     0.0336382  
H389     H      0.516470000000     0.035230000000     0.363700000000     0.0201154  
H390     H      0.482710000000     0.947670000000     0.062590000000     0.0790849  
H391     H      0.454840000000     0.934370000000     0.087730000000     0.0662274  
H392     H      0.456010000000     0.949300000000     0.047380000000     0.0805284  
H393     H      0.762780000000     0.169340000000     0.117890000000     0.0200726  
H394     H      0.574990000000     0.009530000000     0.006310000000     0.020453   
H395     H      0.679430000000     0.120180000000     0.107470000000     0.0351011  
H396     H      0.658860000000     0.058300000000     0.013320000000     0.0343518  
H397     H      0.615730000000     0.029230000000     0.030390000000     0.053037   
H398     H      0.699810000000     0.078260000000     0.039300000000     0.0357349  
H399     H      0.619630000000     0.099200000000     0.023120000000     0.0586127  
H400     H      0.721440000000     0.149200000000     0.094450000000     0.0500664  
H401     H      0.721610000000     0.080610000000     0.092270000000     0.0506674  
H402     H      0.638610000000     0.100460000000     0.081000000000     0.033961   
H403     H      0.763220000000     0.101450000000     0.114780000000     0.0206477  
H404     H      0.560570000000     0.081690000000     0.011550000000     0.0779687  
H405     H      0.590110000000     0.104330000000     0.995840000000     0.0638205  
H406     H      0.569880000000     0.081200000000     0.966140000000     0.078461   
H407     H      0.158990000000     0.854150000000     0.404420000000     0.0204961  
H408     H      0.199820000000     0.818750000000     0.692250000000     0.0179696  
H409     H      0.151310000000     0.836390000000     0.518140000000     0.0353081  
H410     H      0.228860000000     0.863810000000     0.584140000000     0.0346695  
H411     H      0.204660000000     0.824600000000     0.629350000000     0.0536345  
H412     H      0.230050000000     0.865830000000     0.519950000000     0.0349719  
H413     H      0.172140000000     0.870450000000     0.632860000000     0.0596845  
H414     H      0.161450000000     0.859120000000     0.467460000000     0.0501536  
H415     H      0.220570000000     0.842720000000     0.469310000000     0.0500132  
H416     H      0.150730000000     0.836020000000     0.582040000000     0.0350618  
H417     H      0.218630000000     0.839540000000     0.405950000000     0.0198683  
H418     H      0.175820000000     0.882370000000     0.719530000000     0.0788773  
H419     H      0.155510000000     0.876130000000     0.683180000000     0.0646002  
H420     H      0.146710000000     0.853480000000     0.716760000000     0.0778449  
H421     H      0.199250000000     0.808120000000     0.194960000000     0.0190895  
H422     H      0.145500000000     0.832310000000     0.909120000000     0.0177991  
H423     H      0.202040000000     0.821400000000     0.079310000000     0.0352462  
H424     H      0.121320000000     0.789620000000     0.020310000000     0.0347372  
H425     H      0.143330000000     0.828220000000     0.972410000000     0.053645   
H426     H      0.123090000000     0.789920000000     0.084450000000     0.0350764  
H427     H      0.175800000000     0.782380000000     0.967300000000     0.0595711  
H428     H      0.194930000000     0.801250000000     0.132170000000     0.0496135  
H429     H      0.134160000000     0.815210000000     0.132650000000     0.0502632  
H430     H      0.199700000000     0.819400000000     0.015430000000     0.0350933  
H431     H      0.138030000000     0.820300000000     0.195550000000     0.0208226  
H432     H      0.197770000000     0.796710000000     0.881970000000     0.0770879  
H433     H      0.189310000000     0.774320000000     0.915860000000     0.0643833  
H434     H      0.168240000000     0.768180000000     0.880620000000     0.0789639  
H435     H      0.434210000000     0.933520000000     0.938400000000     0.0194575  
H436     H      0.241410000000     0.895390000000     0.831880000000     0.020311   
H437     H      0.372980000000     0.911170000000     0.857520000000     0.0356316  
H438     H      0.304990000000     0.920610000000     0.906520000000     0.0341907  
H439     H      0.282430000000     0.918650000000     0.854310000000     0.0527298  
H440     H      0.345710000000     0.943000000000     0.933130000000     0.0356273  
H441     H      0.292230000000     0.856210000000     0.841870000000     0.0580383  
H442     H      0.393130000000     0.911030000000     0.914010000000     0.0501903  
H443     H      0.387890000000     0.976840000000     0.918360000000     0.0505239  
H444     H      0.332440000000     0.889140000000     0.830400000000     0.0333355  
H445     H      0.429030000000     0.998880000000     0.942860000000     0.0195316  
H446     H      0.242690000000     0.822900000000     0.785400000000     0.0795613  
H447     H      0.264330000000     0.821300000000     0.813800000000     0.0633741  
H448     H      0.234390000000     0.811920000000     0.830650000000     0.0749371  
H449     H      0.863300000000     0.704450000000     0.027310000000     0.0205603  
H450     H      0.818650000000     0.689190000000     0.736450000000     0.0185936  
H451     H      0.856930000000     0.669830000000     0.919870000000     0.0363735  
H452     H      0.786690000000     0.664860000000     0.852880000000     0.0340226  
H453     H      0.815710000000     0.692250000000     0.799260000000     0.0531986  
H454     H      0.788040000000     0.669510000000     0.917180000000     0.0356082  
H455     H      0.824230000000     0.629320000000     0.814000000000     0.0596067  
H456     H      0.860340000000     0.703610000000     0.963670000000     0.0513227  
H457     H      0.786980000000     0.641550000000     0.970480000000     0.0507258  
H458     H      0.855380000000     0.664820000000     0.856030000000     0.0350121  
H459     H      0.790550000000     0.642530000000     0.034200000000     0.0196541  
H460     H      0.845730000000     0.626730000000     0.733520000000     0.0792888  
H461     H      0.827520000000     0.607490000000     0.768710000000     0.0646462  
H462     H      0.812400000000     0.607330000000     0.729050000000     0.0798261  
H463     H      0.811970000000     0.631850000000     0.244990000000     0.0198516  
H464     H      0.845990000000     0.696160000000     0.529050000000     0.0192724  
H465     H      0.836840000000     0.625220000000     0.355950000000     0.0348021  
H466     H      0.874760000000     0.705920000000     0.416330000000     0.0337591  
H467     H      0.848300000000     0.696680000000     0.466010000000     0.0529514  
H468     H      0.872380000000     0.704440000000     0.352450000000     0.035494   
H469     H      0.865560000000     0.638600000000     0.468970000000     0.058798   
H470     H      0.815930000000     0.631710000000     0.308280000000     0.0505217  
H471     H      0.888220000000     0.695660000000     0.300780000000     0.0503874  
H472     H      0.837980000000     0.626640000000     0.419920000000     0.0335836  
H473     H      0.883360000000     0.695730000000     0.237660000000     0.0206036  
H474     H      0.849780000000     0.617640000000     0.548160000000     0.0779855  
H475     H      0.876510000000     0.627660000000     0.521180000000     0.0652193  
H476     H      0.879260000000     0.643950000000     0.560680000000     0.0801924  
H477     H      0.579580000000     0.506970000000     0.489230000000     0.0206286  
H478     H      0.765950000000     0.596240000000     0.600970000000     0.0189917  
H479     H      0.662930000000     0.559430000000     0.498470000000     0.0354671  
H480     H      0.680500000000     0.611320000000     0.604740000000     0.0337111  
H481     H      0.724870000000     0.576480000000     0.577660000000     0.0523442  
H482     H      0.639650000000     0.592180000000     0.578510000000     0.0358752  
H483     H      0.722070000000     0.642740000000     0.592580000000     0.0592854  
H484     H      0.621150000000     0.527260000000     0.511750000000     0.0504896  
H485     H      0.617810000000     0.593640000000     0.525980000000     0.0507283  
H486     H      0.703840000000     0.578640000000     0.524660000000     0.0342548  
H487     H      0.576000000000     0.572680000000     0.503780000000     0.0204802  
H488     H      0.779600000000     0.683130000000     0.606090000000     0.0789571  
H489     H      0.750720000000     0.674400000000     0.626530000000     0.0653135  
H490     H      0.772890000000     0.670760000000     0.650770000000     0.0799499  
H491     H      0.912310000000     0.729120000000     0.666400000000     0.0204211  
H492     H      0.102460000000     0.755570000000     0.765490000000     0.0202955  
H493     H      0.994720000000     0.760490000000     0.673170000000     0.0352339  
H494     H      0.016490000000     0.715910000000     0.760830000000     0.033984   
H495     H      0.061510000000     0.733350000000     0.741620000000     0.0533164  
H496     H      0.975200000000     0.695730000000     0.735620000000     0.0355448  
H497     H      0.051610000000     0.794990000000     0.761390000000     0.0591093  
H498     H      0.953880000000     0.748230000000     0.688240000000     0.0497561  
H499     H      0.950790000000     0.678070000000     0.684490000000     0.0493053  
H500     H      0.035570000000     0.780760000000     0.699320000000     0.0333932  
H501     H      0.908700000000     0.659280000000     0.663850000000     0.018109   
H502     H      0.108630000000     0.838970000000     0.775360000000     0.0750188  
H503     H      0.078830000000     0.827980000000     0.794010000000     0.0638585  
H504     H      0.101290000000     0.825700000000     0.819570000000     0.0798341  
N1       N      0.796100000000     0.097380000000     0.671930000000    -0.221181   
N2       N      0.705720000000     0.902520000000     0.783350000000    -0.208711   
N3       N      0.866430000000     0.236880000000     0.618990000000    -0.220819   
N4       N      0.970100000000     0.431020000000     0.504960000000    -0.208378   
N5       N      0.144280000000     0.761240000000     0.327410000000    -0.221092   
N6       N      0.043000000000     0.568920000000     0.447530000000    -0.208883   
N7       N      0.543890000000     0.566760000000     0.941200000000    -0.220738   
N8       N      0.639490000000     0.763770000000     0.836830000000    -0.208492   
N9       N      0.303280000000     0.093420000000     0.156890000000    -0.221233   
N10      N      0.213750000000     0.900040000000     0.272600000000    -0.20845    
N11      N      0.365750000000     0.233280000000     0.107820000000    -0.221561   
N12      N      0.467370000000     0.428370000000     0.997050000000    -0.208793   
N13      N      0.667580000000     0.818710000000     0.709360000000    -0.220823   
N14      N      0.679280000000     0.825940000000     0.410220000000    -0.208935   
N15      N      0.671580000000     0.849950000000     0.209800000000    -0.222017   
N16      N      0.678100000000     0.848190000000     0.910960000000    -0.208605   
N17      N      0.713360000000     0.806920000000     0.281750000000    -0.221011   
N18      N      0.805740000000     0.706680000000     0.162720000000    -0.208628   
N19      N      0.537130000000     0.963980000000     0.449460000000    -0.221211   
N20      N      0.637750000000     0.869610000000     0.338520000000    -0.208879   
N21      N      0.015270000000     0.515560000000     0.577170000000    -0.220615   
N22      N      0.001740000000     0.511730000000     0.875220000000    -0.208382   
N23      N      0.997910000000     0.484200000000     0.375680000000    -0.222477   
N24      N      0.006580000000     0.488540000000     0.076330000000    -0.208265   
N25      N      0.868520000000     0.630380000000     0.109990000000    -0.220854   
N26      N      0.968390000000     0.534290000000     0.001770000000    -0.207955   
N27      N      0.335640000000     0.151340000000     0.031270000000    -0.221975   
N28      N      0.337730000000     0.154380000000     0.731940000000    -0.209046   
N29      N      0.333740000000     0.181260000000     0.531710000000    -0.221448   
N30      N      0.334420000000     0.176640000000     0.232550000000    -0.209369   
N31      N      0.369580000000     0.132620000000     0.603590000000    -0.220725   
N32      N      0.462930000000     0.029920000000     0.496580000000    -0.208512   
N33      N      0.134230000000     0.366300000000     0.837670000000    -0.221309   
N34      N      0.039670000000     0.466530000000     0.949420000000    -0.208556   
N35      N      0.202560000000     0.294940000000     0.785640000000    -0.221199   
N36      N      0.301480000000     0.202800000000     0.661450000000    -0.208825   
N37      N      0.493030000000     0.481460000000     0.868500000000    -0.222095   
N38      N      0.491170000000     0.488900000000     0.569240000000    -0.208682   
N39      N      0.518270000000     0.516150000000     0.368280000000    -0.221258   
N40      N      0.517480000000     0.513030000000     0.068790000000    -0.208884   
N41      N      0.851150000000     0.184200000000     0.045640000000    -0.221448   
N42      N      0.843390000000     0.182230000000     0.745950000000    -0.208837   
N43      N      0.819070000000     0.151640000000     0.545390000000    -0.222555   
N44      N      0.819880000000     0.158570000000     0.246040000000    -0.208557   
N45      N      0.154160000000     0.326780000000     0.412960000000    -0.222695   
N46      N      0.158600000000     0.334880000000     0.711690000000    -0.20942    
N47      N      0.179110000000     0.325800000000     0.912870000000    -0.222622   
N48      N      0.182420000000     0.333820000000     0.211600000000    -0.209422   
N49      N      0.098970000000     0.296170000000     0.286750000000    -0.221245   
N50      N      0.904510000000     0.205710000000     0.173840000000    -0.20876    
N51      N      0.239010000000     0.364970000000     0.336850000000    -0.22111    
N52      N      0.435510000000     0.466670000000     0.443000000000    -0.208703   
N53      N      0.519450000000     0.013060000000     0.871180000000    -0.220978   
N54      N      0.511290000000     0.996350000000     0.573260000000    -0.208881   
N55      N      0.486410000000     0.996700000000     0.071930000000    -0.222111   
N56      N      0.488110000000     0.997750000000     0.371380000000    -0.208696   
N57      N      0.572700000000     0.042510000000     0.000890000000    -0.221019   
N58      N      0.766210000000     0.136990000000     0.117710000000    -0.208732   
N59      N      0.183060000000     0.841080000000     0.699770000000    -0.221981   
N60      N      0.188340000000     0.846080000000     0.400550000000    -0.208805   
N61      N      0.162040000000     0.809870000000     0.900770000000    -0.221817   
N62      N      0.169150000000     0.814950000000     0.199890000000    -0.208822   
N63      N      0.242210000000     0.861860000000     0.823540000000    -0.221023   
N64      N      0.434810000000     0.967940000000     0.942090000000    -0.20918    
N65      N      0.823710000000     0.657700000000     0.737870000000    -0.221553   
N66      N      0.827350000000     0.673240000000     0.035460000000    -0.209126   
N67      N      0.853450000000     0.666520000000     0.536340000000    -0.222068   
N68      N      0.847180000000     0.664000000000     0.236640000000    -0.209062   
N69      N      0.768440000000     0.631190000000     0.610550000000    -0.221561   
N70      N      0.574550000000     0.538190000000     0.495210000000    -0.208606   
N71      N      0.101630000000     0.788740000000     0.776980000000    -0.221061   
N72      N      0.907300000000     0.692740000000     0.663740000000    -0.209036   
O1       O      0.828670000000     0.641060000000     0.686310000000    -0.564981   
O2       O      0.844660000000     0.646030000000     0.589460000000    -0.563691   
O3       O      0.870440000000     0.658450000000     0.649720000000    -0.558859   
O4       O      0.802700000000     0.628600000000     0.625910000000    -0.557223   
O5       O      0.805770000000     0.665370000000     0.623990000000    -0.565154   
O6       O      0.873240000000     0.695230000000     0.647970000000    -0.559697   
O7       O      0.847560000000     0.682760000000     0.587370000000    -0.558638   
O8       O      0.831360000000     0.677640000000     0.684410000000    -0.560002   
O9       O      0.164380000000     0.833680000000     0.853200000000    -0.559554   
O10      O      0.176820000000     0.850150000000     0.756420000000    -0.563597   
O11      O      0.136570000000     0.824090000000     0.795100000000    -0.567221   
O12      O      0.204890000000     0.859880000000     0.814470000000    -0.559339   
O13      O      0.207380000000     0.826310000000     0.805330000000    -0.564351   
O14      O      0.138920000000     0.790460000000     0.785770000000    -0.556332   
O15      O      0.179620000000     0.816700000000     0.747160000000    -0.558802   
O16      O      0.167110000000     0.800200000000     0.843880000000    -0.563103   
O17      O      0.494990000000     0.983170000000     0.020260000000    -0.560902   
O18      O      0.513770000000     0.992750000000     0.924040000000    -0.557626   
O19      O      0.537970000000     0.006160000000     0.985740000000    -0.558906   
O20      O      0.470960000000     0.969790000000     0.958500000000    -0.559976   
O21      O      0.468820000000     0.004150000000     0.958990000000    -0.558661   
O22      O      0.536260000000     0.040590000000     0.984170000000    -0.564404   
O23      O      0.511040000000     0.026630000000     0.923210000000    -0.56503    
O24      O      0.494070000000     0.018130000000     0.019950000000    -0.559635   
O25      O      0.160910000000     0.310670000000     0.362550000000    -0.560856   
O26      O      0.176150000000     0.314730000000     0.265330000000    -0.56044    
O27      O      0.202440000000     0.329360000000     0.325070000000    -0.564765   
O28      O      0.134550000000     0.296040000000     0.302660000000    -0.56432    
O29      O      0.135310000000     0.331690000000     0.299460000000    -0.559693   
O30      O      0.203360000000     0.365120000000     0.322060000000    -0.556929   
O31      O      0.176900000000     0.350530000000     0.262160000000    -0.559054   
O32      O      0.161510000000     0.346300000000     0.359220000000    -0.564198   
O33      O      0.843660000000     0.195630000000     0.100030000000    -0.561221   
O34      O      0.826090000000     0.182000000000     0.196410000000    -0.55567    
O35      O      0.868650000000     0.205690000000     0.160990000000    -0.55789    
O36      O      0.801190000000     0.172060000000     0.135320000000    -0.557071   
O37      O      0.801900000000     0.137000000000     0.131580000000    -0.558526   
O38      O      0.869540000000     0.170790000000     0.155910000000    -0.559374   
O39      O      0.827590000000     0.147380000000     0.192050000000    -0.558855   
O40      O      0.843950000000     0.160510000000     0.095390000000    -0.559552   
O41      O      0.496200000000     0.512390000000     0.520260000000    -0.559149   
O42      O      0.511670000000     0.526870000000     0.423710000000    -0.564515   
O43      O      0.470140000000     0.502140000000     0.460430000000    -0.559365   
O44      O      0.538040000000     0.537250000000     0.483680000000    -0.55643    
O45      O      0.539990000000     0.503000000000     0.477130000000    -0.558874   
O46      O      0.472060000000     0.467820000000     0.454700000000    -0.557372   
O47      O      0.513600000000     0.492690000000     0.417490000000    -0.556792   
O48      O      0.498690000000     0.478370000000     0.514510000000    -0.555721   
O49      O      0.156240000000     0.310430000000     0.862260000000    -0.561093   
O50      O      0.145380000000     0.315580000000     0.765190000000    -0.560759   
O51      O      0.167420000000     0.295710000000     0.802030000000    -0.565226   
O52      O      0.134270000000     0.330300000000     0.825260000000    -0.565514   
O53      O      0.169550000000     0.365600000000     0.822670000000    -0.556737   
O54      O      0.202770000000     0.330880000000     0.799280000000    -0.559854   
O55      O      0.180890000000     0.350900000000     0.762440000000    -0.558813   
O56      O      0.191720000000     0.345600000000     0.859380000000    -0.563856   
O57      O      0.355040000000     0.177900000000     0.682640000000    -0.560857   
O58      O      0.351930000000     0.192240000000     0.586610000000    -0.567171   
O59      O      0.336910000000     0.202350000000     0.647480000000    -0.558876   
O60      O      0.369860000000     0.167930000000     0.621820000000    -0.567392   
O61      O      0.334060000000     0.133420000000     0.616960000000    -0.556494   
O62      O      0.300880000000     0.167800000000     0.642210000000    -0.557733   
O63      O      0.316030000000     0.157820000000     0.581320000000    -0.556856   
O64      O      0.318770000000     0.143540000000     0.677830000000    -0.556151   
O65      O      0.020110000000     0.524180000000     0.929470000000    -0.557327   
O66      O      0.023420000000     0.511940000000     0.026600000000    -0.557544   
O67      O      0.039210000000     0.501440000000     0.966650000000    -0.556335   
O68      O      0.004420000000     0.534650000000     0.989310000000    -0.556321   
O69      O      0.968980000000     0.499330000000     0.985300000000    -0.557674   
O70      O      0.003720000000     0.466210000000     0.962140000000    -0.55781    
O71      O      0.988110000000     0.476520000000     0.022130000000    -0.560435   
O72      O      0.984660000000     0.488880000000     0.925230000000    -0.560783   
O73      O      0.690270000000     0.862550000000     0.264150000000    -0.562098   
O74      O      0.695070000000     0.850000000000     0.360770000000    -0.557576   
O75      O      0.711120000000     0.840970000000     0.299890000000    -0.563748   
O76      O      0.674340000000     0.871570000000     0.324910000000    -0.560609   
O77      O      0.639650000000     0.835560000000     0.320640000000    -0.556763   
O78      O      0.676660000000     0.805070000000     0.295540000000    -0.559202   
O79      O      0.660550000000     0.813870000000     0.356210000000    -0.559013   
O80      O      0.655790000000     0.826550000000     0.259840000000    -0.560532   
O81      O      0.824160000000     0.648690000000     0.186210000000    -0.558268   
O82      O      0.813610000000     0.654280000000     0.089080000000    -0.558562   
O83      O      0.834220000000     0.632910000000     0.125970000000    -0.563889   
O84      O      0.803620000000     0.670010000000     0.149180000000    -0.55917    
O85      O      0.839910000000     0.704500000000     0.146310000000    -0.557068   
O86      O      0.870390000000     0.667180000000     0.123070000000    -0.55927    
O87      O      0.850000000000     0.688630000000     0.086080000000    -0.559628   
O88      O      0.860490000000     0.683110000000     0.183080000000    -0.559575   
O89      O      0.476800000000     0.979280000000     0.425720000000    -0.557509   
O90      O      0.488560000000     0.978210000000     0.523470000000    -0.557803   
O91      O      0.464420000000     0.994760000000     0.484390000000    -0.555557   
O92      O      0.500990000000     0.962830000000     0.464860000000    -0.557416   
O93      O      0.534900000000     0.999150000000     0.459280000000    -0.564708   
O94      O      0.498820000000     0.031080000000     0.480790000000    -0.559335   
O95      O      0.523240000000     0.014170000000     0.518610000000    -0.559152   
O96      O      0.510490000000     0.016110000000     0.421340000000    -0.557908   
O97      O      0.353200000000     0.172440000000     0.183420000000    -0.561206   
O98      O      0.352910000000     0.158060000000     0.086700000000    -0.566765   
O99      O      0.367960000000     0.199030000000     0.124080000000    -0.561441   
O100     O      0.337800000000     0.131080000000     0.146060000000    -0.558157   
O101     O      0.301050000000     0.127630000000     0.139900000000    -0.564177   
O102     O      0.331140000000     0.195570000000     0.118710000000    -0.562088   
O103     O      0.316110000000     0.154590000000     0.080640000000    -0.557986   
O104     O      0.315990000000     0.168370000000     0.177990000000    -0.557215   
O105     O      0.482280000000     0.490490000000     0.921990000000    -0.560205   
O106     O      0.495140000000     0.507660000000     0.018370000000    -0.559174   
O107     O      0.507420000000     0.532590000000     0.957480000000    -0.559654   
O108     O      0.469930000000     0.465280000000     0.983040000000    -0.557067   
O109     O      0.503630000000     0.462020000000     0.979680000000    -0.559682   
O110     O      0.541030000000     0.529390000000     0.954720000000    -0.561758   
O111     O      0.528590000000     0.503910000000     0.015630000000    -0.557108   
O112     O      0.515880000000     0.487170000000     0.918880000000    -0.561114   
O113     O      0.166620000000     0.839630000000     0.349200000000    -0.559373   
O114     O      0.156330000000     0.822650000000     0.252540000000    -0.559572   
O115     O      0.144580000000     0.797200000000     0.313350000000    -0.557786   
O116     O      0.178380000000     0.864770000000     0.288390000000    -0.558649   
O117     O      0.213720000000     0.864450000000     0.287290000000    -0.556549   
O118     O      0.179730000000     0.796820000000     0.311450000000    -0.564124   
O119     O      0.191590000000     0.822190000000     0.250860000000    -0.55706    
O120     O      0.201630000000     0.838690000000     0.347950000000    -0.556469   
O121     O      0.028660000000     0.507740000000     0.524510000000    -0.564345   
O122     O      0.019030000000     0.490560000000     0.427860000000    -0.560372   
O123     O      0.041770000000     0.532930000000     0.463400000000    -0.558099   
O124     O      0.006100000000     0.465500000000     0.488790000000    -0.558207   
O125     O      0.971430000000     0.467090000000     0.489400000000    -0.557837   
O126     O      0.007080000000     0.534480000000     0.463980000000    -0.55821    
O127     O      0.984550000000     0.492230000000     0.428260000000    -0.564663   
O128     O      0.994200000000     0.509480000000     0.524970000000    -0.559662   
O129     O      0.819910000000     0.175420000000     0.696180000000    -0.558725   
O130     O      0.807840000000     0.160000000000     0.599020000000    -0.559801   
O131     O      0.796720000000     0.133750000000     0.659050000000    -0.56344    
O132     O      0.831040000000     0.201550000000     0.636120000000    -0.564289   
O133     O      0.865710000000     0.200470000000     0.631290000000    -0.557226   
O134     O      0.831580000000     0.132850000000     0.656110000000    -0.559717   
O135     O      0.842200000000     0.158040000000     0.595500000000    -0.562399   
O136     O      0.855160000000     0.175120000000     0.691970000000    -0.55772    
O137     O      0.687670000000     0.825830000000     0.762690000000    -0.557891   
O138     O      0.693710000000     0.841810000000     0.859840000000    -0.557102   
O139     O      0.674580000000     0.799970000000     0.823050000000    -0.556834   
O140     O      0.706930000000     0.867770000000     0.799410000000    -0.556252   
O141     O      0.670780000000     0.866410000000     0.797700000000    -0.560091   
O142     O      0.638490000000     0.798740000000     0.821570000000    -0.558497   
O143     O      0.657710000000     0.840770000000     0.858130000000    -0.558223   
O144     O      0.651740000000     0.824590000000     0.761160000000    -0.564787   
V1       V      0.836460000000     0.642060000000     0.637920000000     1.38569    
V2       V      0.839610000000     0.681710000000     0.635830000000     1.39498    
V3       V      0.170580000000     0.843280000000     0.805180000000     1.39211    
V4       V      0.173310000000     0.807060000000     0.795130000000     1.38466    
V5       V      0.504520000000     0.986610000000     0.972190000000     1.39015    
V6       V      0.502480000000     0.023740000000     0.971560000000     1.38923    
V7       V      0.168480000000     0.311290000000     0.314050000000     1.39103    
V8       V      0.169340000000     0.349850000000     0.310610000000     1.39131    
V9       V      0.834860000000     0.190230000000     0.148390000000     1.38561    
V10      V      0.835770000000     0.152540000000     0.143540000000     1.39888    
V11      V      0.503980000000     0.521030000000     0.472270000000     1.39315    
V12      V      0.506140000000     0.484100000000     0.465710000000     1.39187    
V13      V      0.149440000000     0.311620000000     0.813820000000     1.3932     
V14      V      0.187630000000     0.349670000000     0.810850000000     1.39013    
V15      V      0.354820000000     0.186470000000     0.634850000000     1.39701    
V16      V      0.316000000000     0.149260000000     0.629350000000     1.38818    
V17      V      0.023200000000     0.519450000000     0.978200000000     1.3932     
V18      V      0.984960000000     0.481360000000     0.973530000000     1.39582    
V19      V      0.694070000000     0.857690000000     0.312610000000     1.38698    
V20      V      0.656780000000     0.818850000000     0.307880000000     1.39719    
V21      V      0.817470000000     0.650110000000     0.137730000000     1.39159    
V22      V      0.856630000000     0.687230000000     0.134490000000     1.39708    
V23      V      0.481330000000     0.977320000000     0.474780000000     1.39084    
V24      V      0.518210000000     0.016560000000     0.469790000000     1.39428    
V25      V      0.354400000000     0.165250000000     0.135310000000     1.39815    
V26      V      0.314610000000     0.161400000000     0.129070000000     1.38238    
V27      V      0.487350000000     0.499110000000     0.970340000000     1.39839    
V28      V      0.523630000000     0.495530000000     0.967090000000     1.38318    
V29      V      0.160070000000     0.831060000000     0.300950000000     1.39836    
V30      V      0.198080000000     0.830560000000     0.299310000000     1.38761    
V31      V      0.025270000000     0.499140000000     0.476130000000     1.39417    
V32      V      0.987940000000     0.500860000000     0.476670000000     1.3877     
V33      V      0.812500000000     0.167720000000     0.647770000000     1.38779    
V34      V      0.850050000000     0.166600000000     0.643560000000     1.38987    
V35      V      0.692160000000     0.833910000000     0.811320000000     1.39093    
V36      V      0.653250000000     0.832560000000     0.809590000000     1.39438    


