data_structure

_audit_creation_method RASPA-1.0
_audit_creation_date 2023-5-19
_audit_author_name 'Poobodin Mano'

_cell_length_a    38.3758
_cell_length_b    38.3901
_cell_length_c    38.3986
_cell_angle_alpha 90
_cell_angle_beta  90
_cell_angle_gamma 90
_cell_volume      56570.8

_symmetry_cell_setting          triclinic
_symmetry_space_group_name_Hall 'P 1'
_symmetry_space_group_name_H-M  'P 1'
_symmetry_Int_Tables_number     1

_symmetry_equiv_pos_as_xyz 'x,y,z'

loop_
_atom_site_label
_atom_site_type_symbol
_atom_site_fract_x
_atom_site_fract_y
_atom_site_fract_z
_atom_site_charge
C1       C      0.992080000000     0.053060000000     0.485640000000     0.478264   
C2       C      0.986120000000     0.920950000000     0.491800000000     0.477085   
C3       C      0.922810000000     0.990330000000     0.490770000000     0.478454   
C4       C      0.054970000000     0.982740000000     0.486670000000     0.484094   
C5       C      0.993700000000     0.552620000000     0.501260000000     0.483383   
C6       C      0.997160000000     0.421570000000     0.481550000000     0.482968   
C7       C      0.995650000000     0.495870000000     0.425900000000     0.478477   
C8       C      0.995440000000     0.477410000000     0.556920000000     0.484042   
C9       C      0.554510000000     0.996580000000     0.500340000000     0.484211   
C10      C      0.422900000000     0.995720000000     0.485510000000     0.477966   
C11      C      0.480740000000     0.994910000000     0.558050000000     0.483357   
C12      C      0.495420000000     0.997580000000     0.426520000000     0.478678   
C13      C      0.494470000000     0.007560000000     0.058300000000     0.484666   
C14      C      0.487880000000     0.003570000000     0.926160000000     0.478291   
C15      C      0.491620000000     0.071190000000     0.991000000000     0.479553   
C16      C      0.490410000000     0.938970000000     0.992350000000     0.486095   
C17      C      0.062150000000     0.495000000000     0.995440000000     0.479591   
C18      C      0.930090000000     0.497740000000     0.986890000000     0.484544   
C19      C      0.991200000000     0.500300000000     0.057370000000     0.485121   
C20      C      0.999610000000     0.492560000000     0.925590000000     0.478614   
C21      C      0.429970000000     0.505080000000     0.999810000000     0.485305   
C22      C      0.562320000000     0.506350000000     0.000670000000     0.479147   
C23      C      0.498780000000     0.439070000000     0.999470000000     0.486174   
C24      C      0.494950000000     0.571230000000     0.001230000000     0.479664   
C25      C      0.837670000000     0.471000000000     0.983620000000    -0.144768   
C26      C      0.616310000000     0.503310000000     0.031280000000     0.0759349  
C27      C      0.615990000000     0.510370000000     0.969920000000     0.0768409  
C28      C      0.652730000000     0.503030000000     0.031500000000    -0.0984711  
C29      C      0.728290000000     0.480340000000     0.017220000000    -0.0382104  
C30      C      0.764640000000     0.479040000000     0.015150000000    -0.0326513  
C31      C      0.709670000000     0.506530000000     0.999700000000    -0.00794978 
C32      C      0.652320000000     0.510710000000     0.969280000000    -0.0986862  
C33      C      0.783020000000     0.504210000000     0.995940000000    -0.0176489  
C34      C      0.841910000000     0.531950000000     0.996920000000    -0.111789   
C35      C      0.764420000000     0.530800000000     0.979040000000    -0.0325957  
C36      C      0.877960000000     0.529730000000     0.993400000000     0.0818928  
C37      C      0.873910000000     0.469700000000     0.978250000000     0.186819   
C38      C      0.728090000000     0.531820000000     0.980730000000    -0.038302   
C39      C      0.671090000000     0.506870000000     0.000250000000     0.0508354  
C40      C      0.821440000000     0.502260000000     0.992740000000     0.0715328  
C41      C      0.338160000000     0.507550000000     0.970600000000    -0.144747   
C42      C      0.115460000000     0.463160000000     0.996500000000     0.0766768  
C43      C      0.116350000000     0.524830000000     0.000050000000     0.0771152  
C44      C      0.151840000000     0.462100000000     0.997730000000    -0.0984142  
C45      C      0.228410000000     0.474330000000     0.976450000000    -0.0384094  
C46      C      0.264820000000     0.475510000000     0.976410000000    -0.0326552  
C47      C      0.209330000000     0.492660000000     0.001720000000    -0.00760527 
C48      C      0.152670000000     0.524660000000     0.001990000000    -0.0983691  
C49      C      0.282760000000     0.494510000000     0.002020000000    -0.0175434  
C50      C      0.340980000000     0.491860000000     0.031020000000    -0.111203   
C51      C      0.263670000000     0.512130000000     0.027800000000    -0.0324679  
C52      C      0.377080000000     0.495620000000     0.029830000000     0.0822851  
C53      C      0.374340000000     0.513410000000     0.970450000000     0.186706   
C54      C      0.227280000000     0.511440000000     0.027480000000    -0.0384057  
C55      C      0.170780000000     0.493090000000     0.000620000000     0.0508516  
C56      C      0.321230000000     0.497240000000     0.001070000000     0.0717638  
C57      C      0.461190000000     0.847180000000     0.990210000000    -0.144734   
C58      C      0.491780000000     0.624650000000     0.032660000000     0.0766286  
C59      C      0.496840000000     0.625370000000     0.971090000000     0.0762714  
C60      C      0.491300000000     0.661010000000     0.033510000000    -0.0984873  
C61      C      0.519630000000     0.736920000000     0.984060000000    -0.0383588  
C62      C      0.519330000000     0.773270000000     0.983600000000    -0.0326192  
C63      C      0.494240000000     0.718420000000     0.002800000000    -0.00773894 
C64      C      0.496980000000     0.661710000000     0.971070000000    -0.0988567  
C65      C      0.493340000000     0.791800000000     0.001500000000    -0.0174354  
C66      C      0.522090000000     0.850060000000     0.004150000000    -0.111327   
C67      C      0.468020000000     0.773330000000     0.020390000000    -0.0326383  
C68      C      0.520690000000     0.886140000000     0.000730000000     0.0826401  
C69      C      0.460740000000     0.883420000000     0.984790000000     0.186714   
C70      C      0.468630000000     0.736930000000     0.021270000000    -0.0383848  
C71      C      0.494160000000     0.679890000000     0.002500000000     0.0508509  
C72      C      0.492050000000     0.830270000000     0.999370000000     0.0716488  
C73      C      0.505350000000     0.346940000000     0.026690000000    -0.144776   
C74      C      0.461320000000     0.125160000000     0.994880000000     0.0767382  
C75      C      0.522590000000     0.124810000000     0.986760000000     0.076171   
C76      C      0.461110000000     0.161500000000     0.995470000000    -0.0986356  
C77      C      0.475170000000     0.236520000000     0.018720000000    -0.0383276  
C78      C      0.476080000000     0.272880000000     0.019900000000    -0.0324781  
C79      C      0.492570000000     0.218420000000     0.992090000000    -0.00780891 
C80      C      0.523240000000     0.161180000000     0.986710000000    -0.0986384  
C81      C      0.493950000000     0.291780000000     0.994190000000    -0.0176408  
C82      C      0.489390000000     0.350400000000     0.966350000000    -0.111299   
C83      C      0.510940000000     0.273700000000     0.967290000000    -0.0325253  
C84      C      0.491660000000     0.386550000000     0.968310000000     0.0826628  
C85      C      0.509570000000     0.383310000000     0.027630000000     0.186971   
C86      C      0.510460000000     0.237330000000     0.966390000000    -0.0383171  
C87      C      0.492290000000     0.179880000000     0.991320000000     0.0507453  
C88      C      0.495650000000     0.330260000000     0.995880000000     0.0717381  
C89      C      0.470430000000     0.964940000000     0.649090000000    -0.14437    
C90      C      0.516140000000     0.998490000000     0.871170000000     0.0763456  
C91      C      0.454700000000     0.004580000000     0.873670000000     0.075555   
C92      C      0.514980000000     0.996660000000     0.834880000000    -0.0982323  
C93      C      0.499300000000     0.971830000000     0.760600000000    -0.0385136  
C94      C      0.498060000000     0.970790000000     0.724220000000    -0.0327256  
C95      C      0.481440000000     0.997930000000     0.779040000000    -0.00769252 
C96      C      0.452670000000     0.003400000000     0.837350000000    -0.0980976  
C97      C      0.479400000000     0.996180000000     0.705610000000    -0.0175216  
C98      C      0.484700000000     0.025770000000     0.647960000000    -0.110989   
C99      C      0.461580000000     0.022300000000     0.724050000000    -0.0326312  
C100     C      0.484010000000     0.024790000000     0.611710000000     0.0814129  
C101     C      0.467770000000     0.964920000000     0.612520000000     0.185181   
C102     C      0.462390000000     0.023020000000     0.760430000000    -0.038339   
C103     C      0.483010000000     0.999250000000     0.817580000000     0.0502202  
C104     C      0.478580000000     0.995520000000     0.667020000000     0.0709554  
C105     C      0.527320000000     0.012930000000     0.148810000000    -0.144308   
C106     C      0.501800000000     0.967980000000     0.372300000000     0.0766007  
C107     C      0.495500000000     0.029420000000     0.373270000000     0.0766093  
C108     C      0.503000000000     0.968200000000     0.335920000000    -0.0979674  
C109     C      0.472910000000     0.018790000000     0.261570000000    -0.0383445  
C110     C      0.472130000000     0.019380000000     0.225210000000    -0.0324346  
C111     C      0.499070000000     0.000310000000     0.279270000000    -0.00738972 
C112     C      0.496030000000     0.030510000000     0.336930000000    -0.0980536  
C113     C      0.497790000000     0.001920000000     0.205810000000    -0.0174121  
C114     C      0.466690000000     0.997690000000     0.148800000000    -0.111036   
C115     C      0.524070000000     0.983560000000     0.223480000000    -0.0325984  
C116     C      0.466520000000     0.000210000000     0.112610000000     0.0821739  
C117     C      0.526150000000     0.017450000000     0.112440000000     0.186314   
C118     C      0.524530000000     0.982500000000     0.259900000000    -0.0384913  
C119     C      0.499630000000     0.999670000000     0.317860000000     0.0503813  
C120     C      0.497410000000     0.003530000000     0.167240000000     0.0714268  
C121     C      0.966610000000     0.466410000000     0.648080000000    -0.143656   
C122     C      0.001490000000     0.458650000000     0.873670000000     0.0757314  
C123     C      0.999590000000     0.520250000000     0.870060000000     0.0760598  
C124     C      0.001390000000     0.456050000000     0.837400000000    -0.0973966  
C125     C      0.980350000000     0.457110000000     0.761510000000    -0.0383085  
C126     C      0.979560000000     0.454850000000     0.725200000000    -0.0323709  
C127     C      0.999010000000     0.483890000000     0.778170000000    -0.00717518 
C128     C      0.999150000000     0.518580000000     0.833740000000    -0.0974259  
C129     C      0.997170000000     0.479490000000     0.704570000000    -0.0169249  
C130     C      0.026510000000     0.484240000000     0.646470000000    -0.110239   
C131     C      0.015660000000     0.506380000000     0.721240000000    -0.0323507  
C132     C      0.025570000000     0.482490000000     0.610270000000     0.0819869  
C133     C      0.966690000000     0.463090000000     0.611570000000     0.185539   
C134     C      0.016670000000     0.508480000000     0.757550000000    -0.037991   
C135     C      0.999930000000     0.486210000000     0.816880000000     0.0495573  
C136     C      0.996630000000     0.477000000000     0.665880000000     0.0702319  
C137     C      0.982220000000     0.534120000000     0.147040000000    -0.14362    
C138     C      0.964970000000     0.498910000000     0.372080000000     0.0764836  
C139     C      0.026560000000     0.503430000000     0.372600000000     0.0759251  
C140     C      0.964620000000     0.501270000000     0.335810000000    -0.0976069  
C141     C      0.969640000000     0.523870000000     0.260550000000    -0.0381532  
C142     C      0.968860000000     0.523870000000     0.224180000000    -0.0323153  
C143     C      0.996060000000     0.506090000000     0.278660000000    -0.00724383 
C144     C      0.027140000000     0.506080000000     0.336320000000    -0.0975746  
C145     C      0.994630000000     0.506280000000     0.204970000000    -0.0167931  
C146     C      0.000700000000     0.474420000000     0.148350000000    -0.109766   
C147     C      0.021400000000     0.489030000000     0.223060000000    -0.032349   
C148     C      0.998560000000     0.473440000000     0.112150000000     0.0820082  
C149     C      0.978530000000     0.532130000000     0.110640000000     0.186618   
C150     C      0.022070000000     0.488860000000     0.259450000000    -0.0379027  
C151     C      0.995960000000     0.504710000000     0.317390000000     0.0498533  
C152     C      0.993020000000     0.505120000000     0.166260000000     0.0705717  
C153     C      0.147370000000     0.977710000000     0.513120000000    -0.144581   
C154     C      0.368640000000     0.025910000000     0.484910000000     0.0762124  
C155     C      0.369730000000     0.964500000000     0.478270000000     0.0757352  
C156     C      0.332260000000     0.025870000000     0.483630000000    -0.0980745  
C157     C      0.257540000000     0.974710000000     0.453650000000    -0.0384567  
C158     C      0.221140000000     0.973190000000     0.454110000000    -0.0325305  
C159     C      0.275630000000     0.993740000000     0.479150000000    -0.00760172 
C160     C      0.333390000000     0.963600000000     0.476350000000    -0.0981141  
C161     C      0.202200000000     0.990230000000     0.480390000000    -0.0174689  
C162     C      0.143330000000     0.991870000000     0.452370000000    -0.110773   
C163     C      0.220290000000     0.009420000000     0.505750000000    -0.0325619  
C164     C      0.107180000000     0.988880000000     0.454570000000     0.0819934  
C165     C      0.111080000000     0.972760000000     0.514340000000     0.186887   
C166     C      0.256640000000     0.011370000000     0.504990000000    -0.0383549  
C167     C      0.314250000000     0.994470000000     0.479420000000     0.0501976  
C168     C      0.163740000000     0.987090000000     0.482030000000     0.0713238  
C169     C      0.645600000000     0.967300000000     0.510160000000    -0.14469    
C170     C      0.867920000000     0.988770000000     0.461790000000     0.076453   
C171     C      0.870100000000     0.997170000000     0.522940000000     0.0762494  
C172     C      0.831550000000     0.990000000000     0.462440000000    -0.0980341  
C173     C      0.755760000000     0.970500000000     0.478240000000    -0.0383489  
C174     C      0.719390000000     0.970970000000     0.479940000000    -0.0325703  
C175     C      0.775480000000     0.996290000000     0.495160000000    -0.0075729  
C176     C      0.833760000000     0.999070000000     0.524420000000    -0.0979017  
C177     C      0.701990000000     0.997530000000     0.498150000000    -0.0173863  
C178     C      0.644280000000     0.027760000000     0.494320000000    -0.110562   
C179     C      0.721670000000     0.023610000000     0.514660000000    -0.032544   
C180     C      0.607970000000     0.026920000000     0.496010000000     0.0818106  
C181     C      0.609140000000     0.967500000000     0.513740000000     0.187065   
C182     C      0.758090000000     0.022840000000     0.513400000000    -0.0383102  
C183     C      0.814080000000     0.995250000000     0.493980000000     0.0503835  
C184     C      0.663420000000     0.997500000000     0.500500000000     0.0712015  
C185     C      0.961610000000     0.642690000000     0.512100000000    -0.144313   
C186     C      0.981730000000     0.865760000000     0.463650000000     0.0760479  
C187     C      0.989680000000     0.868490000000     0.524830000000     0.0754367  
C188     C      0.981940000000     0.829380000000     0.464770000000    -0.0978394  
C189     C      0.014620000000     0.756600000000     0.516530000000    -0.0381761  
C190     C      0.015980000000     0.720210000000     0.517760000000    -0.0326043  
C191     C      0.987930000000     0.773580000000     0.498100000000    -0.00769889 
C192     C      0.990570000000     0.832150000000     0.526790000000    -0.0980818  
C193     C      0.990360000000     0.700110000000     0.501030000000    -0.0173542  
C194     C      0.022210000000     0.643340000000     0.496710000000    -0.110386   
C195     C      0.963550000000     0.717100000000     0.482770000000    -0.0326642  
C196     C      0.022430000000     0.607030000000     0.497940000000     0.0816764  
C197     C      0.962860000000     0.606190000000     0.515220000000     0.186751   
C198     C      0.962510000000     0.753470000000     0.481080000000    -0.0383263  
C199     C      0.986710000000     0.812180000000     0.496550000000     0.0500872  
C200     C      0.991350000000     0.661520000000     0.502910000000     0.0708309  
C201     C      0.027860000000     0.331000000000     0.469280000000    -0.14391    
C202     C      0.998350000000     0.107950000000     0.513950000000     0.0764226  
C203     C      0.990450000000     0.105750000000     0.452750000000     0.0761656  
C204     C      0.999940000000     0.144280000000     0.512930000000    -0.0979694  
C205     C      0.023190000000     0.219130000000     0.497210000000    -0.0382232  
C206     C      0.023650000000     0.255540000000     0.496210000000    -0.0324957  
C207     C      0.996950000000     0.200390000000     0.479850000000    -0.00765704 
C208     C      0.991360000000     0.142110000000     0.450890000000    -0.0977048  
C209     C      0.997550000000     0.273940000000     0.478310000000    -0.0175297  
C210     C      0.967250000000     0.331240000000     0.484540000000    -0.110996   
C211     C      0.971280000000     0.255200000000     0.461010000000    -0.0325817  
C212     C      0.967790000000     0.367540000000     0.484280000000     0.0810908  
C213     C      0.027410000000     0.367630000000     0.467100000000     0.186119   
C214     C      0.971130000000     0.218790000000     0.461550000000    -0.0383517  
C215     C      0.996210000000     0.161780000000     0.481200000000     0.0502848  
C216     C      0.997650000000     0.312580000000     0.477760000000     0.0708243  
H1       H      0.602540000000     0.513220000000     0.945260000000     0.0209683  
H2       H      0.892670000000     0.553310000000     0.998540000000     0.0175742  
H3       H      0.714350000000     0.552410000000     0.967170000000     0.036321   
H4       H      0.778410000000     0.458380000000     0.028560000000     0.0349601  
H5       H      0.830210000000     0.556700000000     0.003770000000     0.0541972  
H6       H      0.714690000000     0.460400000000     0.031840000000     0.0361281  
H7       H      0.821860000000     0.448180000000     0.978390000000     0.0644512  
H8       H      0.665640000000     0.513420000000     0.944540000000     0.0515141  
H9       H      0.666410000000     0.500190000000     0.056010000000     0.0512023  
H10      H      0.777920000000     0.550370000000     0.963840000000     0.0345221  
H11      H      0.603040000000     0.500340000000     0.056040000000     0.0194888  
H12      H      0.871480000000     0.418740000000     0.958490000000     0.0838765  
H13      H      0.911730000000     0.439490000000     0.951450000000     0.101371   
H14      H      0.103370000000     0.549900000000     0.000940000000     0.0213338  
H15      H      0.391230000000     0.489660000000     0.053540000000     0.0201162  
H16      H      0.213130000000     0.525640000000     0.047340000000     0.0367125  
H17      H      0.278990000000     0.461660000000     0.956320000000     0.0352435  
H18      H      0.328650000000     0.484080000000     0.055190000000     0.0548052  
H19      H      0.215130000000     0.459830000000     0.956210000000     0.0367026  
H20      H      0.322840000000     0.513600000000     0.947640000000     0.0646078  
H21      H      0.166520000000     0.549180000000     0.003960000000     0.0518365  
H22      H      0.165040000000     0.437170000000     0.996770000000     0.051687   
H23      H      0.276900000000     0.527190000000     0.047660000000     0.0348792  
H24      H      0.101750000000     0.438560000000     0.994360000000     0.0208544  
H25      H      0.372750000000     0.535320000000     0.920350000000     0.0837763  
H26      H      0.412160000000     0.542580000000     0.942430000000     0.101313   
H27      H      0.498990000000     0.612320000000     0.946140000000     0.0198357  
H28      H      0.544550000000     0.900290000000     0.006120000000     0.020048   
H29      H      0.448670000000     0.723230000000     0.035770000000     0.0363896  
H30      H      0.538960000000     0.786900000000     0.968580000000     0.0346915  
H31      H      0.546530000000     0.837770000000     0.011130000000     0.0548022  
H32      H      0.539780000000     0.723220000000     0.969800000000     0.0364353  
H33      H      0.438100000000     0.831870000000     0.984670000000     0.0644661  
H34      H      0.498910000000     0.675490000000     0.946520000000     0.0512446  
H35      H      0.489240000000     0.674260000000     0.058340000000     0.0516894  
H36      H      0.447780000000     0.787060000000     0.034480000000     0.0350743  
H37      H      0.489760000000     0.610990000000     0.057290000000     0.0209784  
H38      H      0.409890000000     0.881950000000     0.964620000000     0.0838372  
H39      H      0.431570000000     0.921530000000     0.957160000000     0.101529   
H40      H      0.547180000000     0.111310000000     0.983390000000     0.019889   
H41      H      0.485050000000     0.400950000000     0.944920000000     0.0200327  
H42      H      0.523890000000     0.223970000000     0.945470000000     0.0364569  
H43      H      0.462680000000     0.286250000000     0.040830000000     0.0350857  
H44      H      0.481960000000     0.338310000000     0.941950000000     0.054806   
H45      H      0.461380000000     0.222520000000     0.038960000000     0.0364316  
H46      H      0.512060000000     0.331430000000     0.049330000000     0.0644636  
H47      H      0.547900000000     0.174550000000     0.983660000000     0.0512947  
H48      H      0.436620000000     0.175130000000     0.998820000000     0.0516808  
H49      H      0.525170000000     0.287670000000     0.947330000000     0.0347323  
H50      H      0.436550000000     0.111960000000     0.998130000000     0.0210359  
H51      H      0.531540000000     0.381680000000     0.077710000000     0.0836695  
H52      H      0.536800000000     0.421900000000     0.056520000000     0.101087   
H53      H      0.430560000000     0.007620000000     0.888010000000     0.0199608  
H54      H      0.490530000000     0.048800000000     0.598340000000     0.020067   
H55      H      0.448570000000     0.043540000000     0.774010000000     0.0364927  
H56      H      0.512110000000     0.950460000000     0.710600000000     0.0346899  
H57      H      0.490970000000     0.050020000000     0.660970000000     0.0545799  
H58      H      0.514000000000     0.952050000000     0.774350000000     0.0362115  
H59      H      0.463860000000     0.941660000000     0.663690000000     0.0639342  
H60      H      0.427430000000     0.005300000000     0.824850000000     0.0510676  
H61      H      0.539050000000     0.993740000000     0.820420000000     0.0514998  
H62      H      0.446770000000     0.042010000000     0.710330000000     0.034694   
H63      H      0.541490000000     0.996520000000     0.883480000000     0.0210132  
H64      H      0.447300000000     0.914190000000     0.611830000000     0.0832404  
H65      H      0.443190000000     0.936330000000     0.571990000000     0.101252   
H66      H      0.492480000000     0.053920000000     0.386980000000     0.0210609  
H67      H      0.442220000000     0.993960000000     0.099620000000     0.0202132  
H68      H      0.545060000000     0.968190000000     0.272940000000     0.0365252  
H69      H      0.451760000000     0.033990000000     0.212230000000     0.0348331  
H70      H      0.442930000000     0.990490000000     0.162250000000     0.0547817  
H71      H      0.452820000000     0.032510000000     0.275880000000     0.0367594  
H72      H      0.550910000000     0.019270000000     0.163000000000     0.0644539  
H73      H      0.493720000000     0.055400000000     0.323830000000     0.0515568  
H74      H      0.505700000000     0.943800000000     0.322020000000     0.0516732  
H75      H      0.544090000000     0.969810000000     0.209110000000     0.0351177  
H76      H      0.503980000000     0.942980000000     0.385270000000     0.0212143  
H77      H      0.576560000000     0.038730000000     0.111320000000     0.0837749  
H78      H      0.553100000000     0.044730000000     0.072500000000     0.101536   
H79      H      0.998660000000     0.545850000000     0.881930000000     0.0210509  
H80      H      0.049220000000     0.489850000000     0.596660000000     0.0198961  
H81      H      0.031660000000     0.529220000000     0.769420000000     0.0358356  
H82      H      0.965470000000     0.433490000000     0.713340000000     0.0336299  
H83      H      0.050670000000     0.491490000000     0.659120000000     0.0540775  
H84      H      0.966030000000     0.437980000000     0.776480000000     0.0354335  
H85      H      0.943340000000     0.459660000000     0.662560000000     0.063361   
H86      H      0.997530000000     0.542600000000     0.819050000000     0.050798   
H87      H      0.002720000000     0.430460000000     0.825590000000     0.0505032  
H88      H      0.029210000000     0.526040000000     0.706220000000     0.0342161  
H89      H      0.002480000000     0.434600000000     0.888440000000     0.0200221  
H90      H      0.917130000000     0.439860000000     0.611230000000     0.0830254  
H91      H      0.939370000000     0.436830000000     0.571280000000     0.100706   
H92      H      0.051340000000     0.504410000000     0.386140000000     0.0199053  
H93      H      0.006050000000     0.449250000000     0.099640000000     0.0200118  
H94      H      0.042600000000     0.474570000000     0.272480000000     0.0357583  
H95      H      0.947580000000     0.537050000000     0.211180000000     0.0339402  
H96      H      0.008290000000     0.451040000000     0.162180000000     0.0542712  
H97      H      0.949440000000     0.537810000000     0.274470000000     0.0358136  
H98      H      0.975270000000     0.558000000000     0.160400000000     0.063741   
H99      H      0.051950000000     0.509320000000     0.323270000000     0.050648   
H100     H      0.939900000000     0.499580000000     0.322330000000     0.0510451  
H101     H      0.041880000000     0.475550000000     0.209100000000     0.0344125  
H102     H      0.940110000000     0.495900000000     0.385160000000     0.0212454  
H103     H      0.954970000000     0.581460000000     0.108040000000     0.083681   
H104     H      0.951460000000     0.557190000000     0.069370000000     0.10097    
H105     H      0.383500000000     0.939930000000     0.476240000000     0.0200283  
H106     H      0.092500000000     0.994530000000     0.431110000000     0.0198809  
H107     H      0.269960000000     0.026020000000     0.525100000000     0.0364095  
H108     H      0.207830000000     0.958010000000     0.434390000000     0.0347313  
H109     H      0.155160000000     0.998880000000     0.427730000000     0.0546929  
H110     H      0.271560000000     0.961040000000     0.433340000000     0.0364871  
H111     H      0.163100000000     0.971980000000     0.535880000000     0.0643934  
H112     H      0.320340000000     0.938760000000     0.473300000000     0.0511372  
H113     H      0.318320000000     0.050310000000     0.485810000000     0.051517   
H114     H      0.206280000000     0.022910000000     0.526200000000     0.0351291  
H115     H      0.381540000000     0.050800000000     0.488320000000     0.0210805  
H116     H      0.113330000000     0.951950000000     0.564880000000     0.0837202  
H117     H      0.073030000000     0.945670000000     0.543990000000     0.101117   
H118     H      0.884330000000     0.000000000000     0.547160000000     0.0210926  
H119     H      0.594340000000     0.050710000000     0.489200000000     0.0196901  
H120     H      0.772670000000     0.043150000000     0.526480000000     0.036505   
H121     H      0.704810000000     0.950650000000     0.466860000000     0.035183   
H122     H      0.657240000000     0.051770000000     0.487080000000     0.0545503  
H123     H      0.768510000000     0.949620000000     0.464190000000     0.0364909  
H124     H      0.660260000000     0.944140000000     0.517010000000     0.0645108  
H125     H      0.821140000000     0.002900000000     0.549360000000     0.0515281  
H126     H      0.817210000000     0.987190000000     0.438300000000     0.0515312  
H127     H      0.708900000000     0.044230000000     0.529080000000     0.0346723  
H128     H      0.880370000000     0.984750000000     0.436770000000     0.0211124  
H129     H      0.608720000000     0.917520000000     0.536000000000     0.084029   
H130     H      0.568950000000     0.939980000000     0.539950000000     0.101933   
H131     H      0.992820000000     0.882920000000     0.548890000000     0.0195624  
H132     H      0.046700000000     0.594240000000     0.491150000000     0.0196509  
H133     H      0.941550000000     0.765910000000     0.466860000000     0.036413   
H134     H      0.036780000000     0.707790000000     0.532230000000     0.0345288  
H135     H      0.045890000000     0.657070000000     0.489810000000     0.0544535  
H136     H      0.034690000000     0.771470000000     0.529670000000     0.0361845  
H137     H      0.937970000000     0.656580000000     0.518940000000     0.0643707  
H138     H      0.994000000000     0.819760000000     0.551900000000     0.0509901  
H139     H      0.979040000000     0.814810000000     0.440780000000     0.0515073  
H140     H      0.943580000000     0.702210000000     0.469520000000     0.0352269  
H141     H      0.978330000000     0.878010000000     0.438440000000     0.0211178  
H142     H      0.912710000000     0.604020000000     0.537030000000     0.084039   
H143     H      0.936310000000     0.564890000000     0.540670000000     0.102044   
H144     H      0.986730000000     0.091530000000     0.428650000000     0.0210348  
H145     H      0.943750000000     0.380570000000     0.491370000000     0.0181733  
H146     H      0.950480000000     0.205000000000     0.448140000000     0.0365559  
H147     H      0.044110000000     0.269370000000     0.509880000000     0.0351161  
H148     H      0.943260000000     0.317870000000     0.491060000000     0.0540576  
H149     H      0.043530000000     0.205580000000     0.511330000000     0.0365293  
H150     H      0.051210000000     0.316780000000     0.462150000000     0.0643186  
H151     H      0.988610000000     0.154730000000     0.425800000000     0.051429   
H152     H      0.003460000000     0.158620000000     0.536990000000     0.0516524  
H153     H      0.951000000000     0.268730000000     0.446780000000     0.0346509  
H154     H      0.001110000000     0.095510000000     0.539150000000     0.0215284  
H155     H      0.077770000000     0.369210000000     0.445770000000     0.0839227  
H156     H      0.055090000000     0.408880000000     0.442720000000     0.101697   
N1       N      0.894230000000     0.498760000000     0.985490000000    -0.226571   
N2       N      0.598070000000     0.506740000000     0.000680000000    -0.209143   
N3       N      0.887200000000     0.440510000000     0.963020000000    -0.21933    
N4       N      0.394040000000     0.505220000000     0.999710000000    -0.225995   
N5       N      0.097850000000     0.494310000000     0.997380000000    -0.208789   
N6       N      0.388020000000     0.530210000000     0.942310000000    -0.219258   
N7       N      0.490250000000     0.903080000000     0.992150000000    -0.22632    
N8       N      0.494480000000     0.606950000000     0.001670000000    -0.209334   
N9       N      0.431980000000     0.897220000000     0.969150000000    -0.219458   
N10      N      0.500500000000     0.403230000000     0.998800000000    -0.226376   
N11      N      0.491860000000     0.106920000000     0.990800000000    -0.209335   
N12      N      0.525690000000     0.397160000000     0.056080000000    -0.219323   
N13      N      0.476910000000     0.994520000000     0.593780000000    -0.225831   
N14      N      0.486230000000     0.002270000000     0.890470000000    -0.208825   
N15      N      0.453170000000     0.936400000000     0.597210000000    -0.21941    
N16      N      0.496050000000     0.008920000000     0.094170000000    -0.225606   
N17      N      0.497820000000     0.998330000000     0.390850000000    -0.208387   
N18      N      0.553960000000     0.033330000000     0.097090000000    -0.219211   
N19      N      0.995660000000     0.473570000000     0.592610000000    -0.226301   
N20      N      0.000420000000     0.490500000000     0.889920000000    -0.208808   
N21      N      0.938960000000     0.446830000000     0.596490000000    -0.219379   
N22      N      0.988840000000     0.502210000000     0.093110000000    -0.226028   
N23      N      0.995730000000     0.499600000000     0.390350000000    -0.208921   
N24      N      0.961850000000     0.558940000000     0.094370000000    -0.219296   
N25      N      0.090820000000     0.980820000000     0.485450000000    -0.225856   
N26      N      0.387240000000     0.995400000000     0.482720000000    -0.208764   
N27      N      0.097650000000     0.957070000000     0.543210000000    -0.219219   
N28      N      0.590230000000     0.996810000000     0.504060000000    -0.225978   
N29      N      0.887090000000     0.992100000000     0.491840000000    -0.208322   
N30      N      0.594050000000     0.939560000000     0.529630000000    -0.219305   
N31      N      0.992800000000     0.588280000000     0.505540000000    -0.225673   
N32      N      0.985650000000     0.885210000000     0.493440000000    -0.208398   
N33      N      0.935240000000     0.590090000000     0.530670000000    -0.219226   
N34      N      0.997760000000     0.385910000000     0.477010000000    -0.225687   
N35      N      0.993670000000     0.088770000000     0.484090000000    -0.208118   
N36      N      0.055500000000     0.383490000000     0.452250000000    -0.219228   
O1       O      0.990110000000     0.035110000000     0.457410000000    -0.555405   
O2       O      0.985530000000     0.936300000000     0.462030000000    -0.556264   
O3       O      0.938490000000     0.987990000000     0.461270000000    -0.557181   
O4       O      0.037290000000     0.983110000000     0.458190000000    -0.557959   
O5       O      0.039260000000     0.985850000000     0.516030000000    -0.560185   
O6       O      0.940490000000     0.990970000000     0.519230000000    -0.556512   
O7       O      0.987720000000     0.938970000000     0.520000000000    -0.559052   
O8       O      0.992450000000     0.037670000000     0.515380000000    -0.556839   
O9       O      0.023190000000     0.536830000000     0.498670000000    -0.556914   
O10      O      0.025690000000     0.438800000000     0.484670000000    -0.558526   
O11      O      0.024650000000     0.494760000000     0.442650000000    -0.55963    
O12      O      0.024440000000     0.480780000000     0.540460000000    -0.559644   
O13      O      0.966490000000     0.479840000000     0.540300000000    -0.562125   
O14      O      0.966580000000     0.492870000000     0.442280000000    -0.557472   
O15      O      0.967770000000     0.437420000000     0.484530000000    -0.561524   
O16      O      0.965250000000     0.535360000000     0.497820000000    -0.559491   
O17      O      0.537690000000     0.025520000000     0.498290000000    -0.557827   
O18      O      0.439220000000     0.024890000000     0.487810000000    -0.557368   
O19      O      0.483010000000     0.024220000000     0.541970000000    -0.560372   
O20      O      0.493480000000     0.026260000000     0.443720000000    -0.557553   
O21      O      0.494380000000     0.968190000000     0.442570000000    -0.555907   
O22      O      0.483740000000     0.966310000000     0.540940000000    -0.561468   
O23      O      0.439850000000     0.966830000000     0.486370000000    -0.559428   
O24      O      0.538150000000     0.967590000000     0.497060000000    -0.559994   
O25      O      0.522510000000     0.005800000000     0.040140000000    -0.560183   
O26      O      0.517690000000     0.003660000000     0.941430000000    -0.558851   
O27      O      0.520510000000     0.054250000000     0.989690000000    -0.560593   
O28      O      0.519590000000     0.955420000000     0.991540000000    -0.560391   
O29      O      0.461720000000     0.956020000000     0.994630000000    -0.561389   
O30      O      0.462490000000     0.054780000000     0.992770000000    -0.559952   
O31      O      0.459660000000     0.004470000000     0.944230000000    -0.559259   
O32      O      0.464640000000     0.006630000000     0.043020000000    -0.558628   
O33      O      0.046150000000     0.524340000000     0.993120000000    -0.55786    
O34      O      0.947520000000     0.526360000000     0.986680000000    -0.563125   
O35      O      0.993690000000     0.528200000000     0.039110000000    -0.560727   
O36      O      0.999730000000     0.522500000000     0.940600000000    -0.558324   
O37      O      0.998120000000     0.464530000000     0.943870000000    -0.560431   
O38      O      0.992570000000     0.470340000000     0.042390000000    -0.55885    
O39      O      0.946060000000     0.468550000000     0.990390000000    -0.560681   
O40      O      0.044820000000     0.466330000000     0.995810000000    -0.557518   
O41      O      0.446980000000     0.504250000000     0.971030000000    -0.561891   
O42      O      0.545740000000     0.506960000000     0.971590000000    -0.560786   
O43      O      0.497970000000     0.456180000000     0.970690000000    -0.560848   
O44      O      0.495170000000     0.554930000000     0.971980000000    -0.56259    
O45      O      0.495320000000     0.554180000000     0.030050000000    -0.558296   
O46      O      0.496650000000     0.455360000000     0.028590000000    -0.560901   
O47      O      0.545520000000     0.505230000000     0.029640000000    -0.559098   
O48      O      0.446530000000     0.504410000000     0.028940000000    -0.55858    
V1       V      0.987780000000     0.985570000000     0.457420000000     1.39067    
V2       V      0.990010000000     0.988470000000     0.519940000000     1.39313    
V3       V      0.026790000000     0.487870000000     0.491610000000     1.39106    
V4       V      0.964230000000     0.486330000000     0.491250000000     1.39301    
V5       V      0.488400000000     0.027520000000     0.492940000000     1.39457    
V6       V      0.489070000000     0.964940000000     0.491680000000     1.39064    
V7       V      0.522380000000     0.004770000000     0.990630000000     1.39554    
V8       V      0.459830000000     0.005460000000     0.993780000000     1.39498    
V9       V      0.996880000000     0.527640000000     0.989750000000     1.39645    
V10      V      0.995380000000     0.465140000000     0.993260000000     1.39381    
V11      V      0.496420000000     0.505590000000     0.969030000000     1.40106    
V12      V      0.495970000000     0.504730000000     0.031620000000     1.39199    


