data_structure

_audit_creation_method RASPA-1.0
_audit_creation_date 2023-6-5
_audit_author_name 'Poobodin Mano'

_cell_length_a    62.8355
_cell_length_b    62.8287
_cell_length_c    37.9667
_cell_angle_alpha 89.949
_cell_angle_beta  90.0508
_cell_angle_gamma 119.915
_cell_volume      129918

_symmetry_cell_setting          triclinic
_symmetry_space_group_name_Hall 'P 1'
_symmetry_space_group_name_H-M  'P 1'
_symmetry_Int_Tables_number     1

_symmetry_equiv_pos_as_xyz 'x,y,z'

loop_
_atom_site_label
_atom_site_type_symbol
_atom_site_fract_x
_atom_site_fract_y
_atom_site_fract_z
_atom_site_charge
C1       C      0.849670000000     0.676230000000     0.572850000000     0.505194   
C2       C      0.827290000000     0.670340000000     0.702440000000     0.504895   
C3       C      0.793380000000     0.650780000000     0.620330000000     0.481596   
C4       C      0.883490000000     0.695720000000     0.654930000000     0.481338   
C5       C      0.159700000000     0.827120000000     0.872850000000     0.482437   
C6       C      0.182090000000     0.841460000000     0.743110000000     0.507375   
C7       C      0.215890000000     0.855970000000     0.825270000000     0.505721   
C8       C      0.125730000000     0.812410000000     0.790610000000     0.504882   
C9       C      0.515340000000     0.001860000000     0.908810000000     0.48221    
C10      C      0.493740000000     0.995370000000     0.038730000000     0.505298   
C11      C      0.459330000000     0.976110000000     0.956890000000     0.480797   
C12      C      0.549640000000     0.021180000000     0.990630000000     0.505007   
C13      C      0.181760000000     0.338870000000     0.241680000000     0.482098   
C14      C      0.160560000000     0.331510000000     0.371710000000     0.482005   
C15      C      0.125970000000     0.311200000000     0.290190000000     0.4804     
C16      C      0.216360000000     0.359180000000     0.323150000000     0.503637   
C17      C      0.827310000000     0.153780000000     0.205650000000     0.504726   
C18      C      0.848190000000     0.171100000000     0.075770000000     0.481263   
C19      C      0.882980000000     0.185110000000     0.157240000000     0.504684   
C20      C      0.792550000000     0.139840000000     0.124190000000     0.480369   
C21      C      0.493340000000     0.500580000000     0.538770000000     0.505075   
C22      C      0.515010000000     0.515730000000     0.408860000000     0.4819     
C23      C      0.549370000000     0.530690000000     0.490640000000     0.505048   
C24      C      0.459070000000     0.485650000000     0.456810000000     0.481388   
C25      C      0.165470000000     0.338770000000     0.741550000000     0.50645    
C26      C      0.178750000000     0.331090000000     0.871860000000     0.505794   
C27      C      0.195860000000     0.313410000000     0.790360000000     0.482693   
C28      C      0.148370000000     0.356420000000     0.823090000000     0.506705   
C29      C      0.344580000000     0.162480000000     0.707950000000     0.505858   
C30      C      0.342190000000     0.181530000000     0.578350000000     0.50608    
C31      C      0.321870000000     0.195750000000     0.659900000000     0.506698   
C32      C      0.364820000000     0.148360000000     0.626360000000     0.482338   
C33      C      0.004640000000     0.510770000000     0.911100000000     0.487446   
C34      C      0.008170000000     0.492740000000     0.040720000000     0.486102   
C35      C      0.027580000000     0.477830000000     0.958990000000     0.480367   
C36      C      0.985270000000     0.525810000000     0.992770000000     0.498379   
C37      C      0.670370000000     0.844580000000     0.238450000000     0.482354   
C38      C      0.675310000000     0.828690000000     0.368580000000     0.506065   
C39      C      0.695200000000     0.813600000000     0.287170000000     0.50529    
C40      C      0.650430000000     0.859410000000     0.319770000000     0.505888   
C41      C      0.848550000000     0.667950000000     0.203150000000     0.480454   
C42      C      0.832830000000     0.673620000000     0.073230000000     0.480523   
C43      C      0.818190000000     0.693390000000     0.154690000000     0.480038   
C44      C      0.863440000000     0.648180000000     0.121670000000     0.4801     
C45      C      0.515200000000     0.000230000000     0.537840000000     0.505704   
C46      C      0.498930000000     0.006310000000     0.408200000000     0.481739   
C47      C      0.483990000000     0.025370000000     0.490260000000     0.505139   
C48      C      0.529940000000     0.981150000000     0.455710000000     0.48245    
C49      C      0.346690000000     0.180160000000     0.208030000000     0.480139   
C50      C      0.340750000000     0.157960000000     0.078390000000     0.479311   
C51      C      0.323010000000     0.124000000000     0.160520000000     0.47974    
C52      C      0.364410000000     0.214010000000     0.125810000000     0.479967   
C53      C      0.493270000000     0.490550000000     0.908360000000     0.48239    
C54      C      0.508150000000     0.512590000000     0.038180000000     0.506496   
C55      C      0.522480000000     0.546570000000     0.956100000000     0.504931   
C56      C      0.478700000000     0.456330000000     0.990400000000     0.505067   
C57      C      0.168340000000     0.824910000000     0.242500000000     0.504977   
C58      C      0.184850000000     0.845450000000     0.372590000000     0.481716   
C59      C      0.200410000000     0.880420000000     0.291190000000     0.504648   
C60      C      0.152680000000     0.789990000000     0.323970000000     0.481051   
C61      C      0.004560000000     0.490960000000     0.411130000000     0.512264   
C62      C      0.010070000000     0.513550000000     0.540610000000     0.511948   
C63      C      0.029590000000     0.547350000000     0.458350000000     0.50539    
C64      C      0.985250000000     0.457260000000     0.493270000000     0.476099   
C65      C      0.828820000000     0.157750000000     0.576170000000     0.481266   
C66      C      0.843020000000     0.179140000000     0.706240000000     0.50498    
C67      C      0.859530000000     0.213720000000     0.624400000000     0.50451    
C68      C      0.812400000000     0.123380000000     0.657820000000     0.481052   
C69      C      0.662100000000     0.823070000000     0.738070000000     0.481823   
C70      C      0.667980000000     0.844660000000     0.867930000000     0.506282   
C71      C      0.687080000000     0.879050000000     0.786110000000     0.504522   
C72      C      0.643010000000     0.788760000000     0.819940000000     0.482488   
C73      C      0.698410000000     0.939590000000     0.756180000000    -0.22087    
C74      C      0.812100000000     0.086570000000     0.674020000000     0.0798652  
C75      C      0.774990000000     0.087770000000     0.674390000000     0.0819959  
C76      C      0.799830000000     0.062430000000     0.686450000000    -0.0950569  
C77      C      0.766890000000     0.007420000000     0.695480000000    -0.0387139  
C78      C      0.754730000000     0.983630000000     0.709290000000    -0.023189   
C79      C      0.761370000000     0.025260000000     0.707580000000    -0.00181519 
C80      C      0.762150000000     0.063630000000     0.686800000000    -0.0937133  
C81      C      0.736720000000     0.977080000000     0.735490000000    -0.027024   
C82      C      0.736520000000     0.939320000000     0.757500000000    -0.130577   
C83      C      0.731110000000     0.994870000000     0.747520000000    -0.0223375  
C84      C      0.723960000000     0.915270000000     0.770180000000     0.100871   
C85      C      0.686310000000     0.915450000000     0.768790000000     0.419192   
C86      C      0.743310000000     0.018680000000     0.733760000000    -0.0377668  
C87      C      0.774570000000     0.050700000000     0.693290000000     0.0524253  
C88      C      0.723740000000     0.951720000000     0.750030000000     0.11106    
C89      C      0.872810000000     0.275020000000     0.595270000000    -0.221676   
C90      C      0.986290000000     0.421420000000     0.511370000000     0.0742185  
C91      C      0.948320000000     0.420850000000     0.508860000000     0.081122   
C92      C      0.974510000000     0.397290000000     0.523940000000    -0.0916035  
C93      C      0.947080000000     0.352260000000     0.570470000000    -0.0390676  
C94      C      0.934730000000     0.328530000000     0.584540000000    -0.0232588  
C95      C      0.936230000000     0.359250000000     0.543800000000    -0.00155943 
C96      C      0.935990000000     0.396780000000     0.521490000000    -0.0934904  
C97      C      0.911190000000     0.311290000000     0.572400000000    -0.0275409  
C98      C      0.909940000000     0.272890000000     0.593880000000    -0.130559   
C99      C      0.900410000000     0.318200000000     0.545600000000    -0.0227353  
C100     C      0.896860000000     0.248900000000     0.606780000000     0.100664   
C101     C      0.860220000000     0.251040000000     0.608360000000     0.419398   
C102     C      0.912790000000     0.341870000000     0.531410000000    -0.0385358  
C103     C      0.949070000000     0.384700000000     0.529430000000     0.0509321  
C104     C      0.897870000000     0.286140000000     0.587530000000     0.11115    
C105     C      0.078490000000     0.608130000000     0.429350000000    -0.220739   
C106     C      0.115400000000     0.754830000000     0.342150000000     0.0800159  
C107     C      0.152140000000     0.752970000000     0.339520000000     0.0810876  
C108     C      0.102610000000     0.730860000000     0.355220000000    -0.0950632  
C109     C      0.078410000000     0.675280000000     0.365100000000    -0.0377586  
C110     C      0.066350000000     0.651690000000     0.379670000000    -0.022869   
C111     C      0.101990000000     0.692790000000     0.376740000000    -0.00188447 
C112     C      0.139950000000     0.729060000000     0.352810000000    -0.0946088  
C113     C      0.077550000000     0.645130000000     0.406380000000    -0.0257382  
C114     C      0.039680000000     0.606920000000     0.426930000000    -0.128561   
C115     C      0.101020000000     0.662810000000     0.418300000000    -0.0219734  
C116     C      0.028290000000     0.582900000000     0.439850000000     0.103466   
C117     C      0.066620000000     0.584150000000     0.442390000000     0.422359   
C118     C      0.113120000000     0.686320000000     0.403570000000    -0.0370212  
C119     C      0.114960000000     0.717810000000     0.361190000000     0.0529     
C120     C      0.065080000000     0.619810000000     0.421220000000     0.112277   
C121     C      0.533140000000     0.606790000000     0.925910000000    -0.220848   
C122     C      0.644320000000     0.753200000000     0.838600000000     0.0806968  
C123     C      0.606180000000     0.752250000000     0.835610000000     0.0832548  
C124     C      0.632740000000     0.729250000000     0.851790000000    -0.0947917  
C125     C      0.606000000000     0.685210000000     0.899970000000    -0.0378228  
C126     C      0.594160000000     0.661680000000     0.914700000000    -0.0226502  
C127     C      0.594810000000     0.691430000000     0.872860000000    -0.00126287 
C128     C      0.594030000000     0.728320000000     0.848860000000    -0.0930346  
C129     C      0.570790000000     0.643850000000     0.902800000000    -0.02661    
C130     C      0.571210000000     0.606450000000     0.924950000000    -0.130792   
C131     C      0.559570000000     0.650040000000     0.875750000000    -0.021798   
C132     C      0.558950000000     0.582540000000     0.938190000000     0.101557   
C133     C      0.521370000000     0.582890000000     0.939340000000     0.420993   
C134     C      0.571450000000     0.673530000000     0.860900000000    -0.0369343  
C135     C      0.607320000000     0.716570000000     0.857480000000     0.0532321  
C136     C      0.558250000000     0.618770000000     0.918240000000     0.112174   
C137     C      0.213860000000     0.941740000000     0.261980000000    -0.222109   
C138     C      0.325390000000     0.088770000000     0.178140000000     0.0780721  
C139     C      0.286810000000     0.086930000000     0.176080000000     0.0790406  
C140     C      0.314240000000     0.064580000000     0.190430000000    -0.0953496  
C141     C      0.287660000000     0.018970000000     0.236450000000    -0.0384133  
C142     C      0.275610000000     0.995220000000     0.250520000000    -0.0234746  
C143     C      0.276540000000     0.025750000000     0.209910000000    -0.0026472  
C144     C      0.275110000000     0.062800000000     0.188420000000    -0.0958568  
C145     C      0.252110000000     0.977780000000     0.238500000000    -0.0270393  
C146     C      0.250920000000     0.939480000000     0.260400000000    -0.12923    
C147     C      0.241160000000     0.984430000000     0.211630000000    -0.0230793  
C148     C      0.237800000000     0.915520000000     0.273480000000     0.10284    
C149     C      0.201250000000     0.917820000000     0.275250000000     0.41913    
C150     C      0.253240000000     0.008090000000     0.197440000000    -0.0382451  
C151     C      0.288800000000     0.051300000000     0.195930000000     0.0514432  
C152     C      0.238870000000     0.952740000000     0.253990000000     0.111539   
C153     C      0.430720000000     0.395510000000     0.020940000000    -0.220787   
C154     C      0.400500000000     0.251090000000     0.109690000000     0.0788085  
C155     C      0.361760000000     0.248880000000     0.107240000000     0.0788556  
C156     C      0.411990000000     0.275010000000     0.096440000000    -0.095891   
C157     C      0.433020000000     0.329640000000     0.084780000000    -0.038594   
C158     C      0.444280000000     0.353150000000     0.070030000000    -0.0233505  
C159     C      0.409900000000     0.311260000000     0.072780000000    -0.00249387 
C160     C      0.372670000000     0.272800000000     0.094010000000    -0.0952895  
C161     C      0.432660000000     0.358880000000     0.043000000000    -0.0268643  
C162     C      0.469640000000     0.396880000000     0.020420000000    -0.130389   
C163     C      0.409540000000     0.340540000000     0.031020000000    -0.0226821  
C164     C      0.480550000000     0.420790000000     0.007190000000     0.101287   
C165     C      0.442160000000     0.419490000000     0.007860000000     0.421258   
C166     C      0.398310000000     0.317010000000     0.045690000000    -0.037708   
C167     C      0.398050000000     0.286110000000     0.088090000000     0.0517651  
C168     C      0.444480000000     0.384010000000     0.027770000000     0.111525   
C169     C      0.691550000000     0.841230000000     0.462220000000    -0.2229     
C170     C      0.678890000000     0.815160000000     0.686760000000     0.080335   
C171     C      0.643620000000     0.819540000000     0.682000000000     0.0818622  
C172     C      0.679600000000     0.813020000000     0.650200000000    -0.0955939  
C173     C      0.666290000000     0.797220000000     0.571920000000    -0.0380093  
C174     C      0.668680000000     0.798340000000     0.535200000000    -0.0221629  
C175     C      0.664580000000     0.815710000000     0.590300000000    -0.00201902 
C176     C      0.644090000000     0.817950000000     0.645370000000    -0.0945321  
C177     C      0.670010000000     0.818270000000     0.516520000000    -0.0275134  
C178     C      0.656300000000     0.800910000000     0.456140000000    -0.129115   
C179     C      0.668440000000     0.836790000000     0.534970000000    -0.0218527  
C180     C      0.657840000000     0.803980000000     0.419600000000     0.105406   
C181     C      0.692940000000     0.843600000000     0.425600000000     0.420558   
C182     C      0.665540000000     0.835410000000     0.571480000000    -0.0376842  
C183     C      0.662440000000     0.815030000000     0.629120000000     0.0533975  
C184     C      0.672890000000     0.819930000000     0.477800000000     0.113684   
C185     C      0.649280000000     0.848240000000     0.958460000000    -0.220399   
C186     C      0.690030000000     0.866480000000     0.186140000000     0.0812877  
C187     C      0.649130000000     0.833170000000     0.183560000000     0.0833074  
C188     C      0.690490000000     0.869130000000     0.149600000000    -0.0962131  
C189     C      0.686000000000     0.848520000000     0.072550000000    -0.0386758  
C190     C      0.686130000000     0.848530000000     0.035790000000    -0.0228221  
C191     C      0.670620000000     0.854790000000     0.091000000000    -0.00228935 
C192     C      0.648780000000     0.835700000000     0.147030000000    -0.094293   
C193     C      0.671250000000     0.855360000000     0.016600000000    -0.0261477  
C194     C      0.691710000000     0.858920000000     0.958100000000    -0.129695   
C195     C      0.656240000000     0.862180000000     0.035440000000    -0.0216451  
C196     C      0.690410000000     0.855880000000     0.921610000000     0.101997   
C197     C      0.648710000000     0.845930000000     0.921800000000     0.420657   
C198     C      0.655720000000     0.861600000000     0.072280000000    -0.0378542  
C199     C      0.669790000000     0.853510000000     0.129760000000     0.0537513  
C200     C      0.670830000000     0.854480000000     0.977270000000     0.110895   
C201     C      0.706810000000     0.764810000000     0.256380000000    -0.221544   
C202     C      0.818920000000     0.730480000000     0.170300000000     0.0783525  
C203     C      0.781450000000     0.692620000000     0.172320000000     0.0785458  
C204     C      0.807240000000     0.742860000000     0.183140000000    -0.0963628  
C205     C      0.780700000000     0.760220000000     0.232290000000    -0.0388778  
C206     C      0.768600000000     0.771740000000     0.246780000000    -0.0238576  
C207     C      0.769520000000     0.742470000000     0.205690000000    -0.00318996 
C208     C      0.769180000000     0.704440000000     0.184990000000    -0.0962747  
C209     C      0.745070000000     0.765820000000     0.234920000000    -0.0270347  
C210     C      0.744880000000     0.803100000000     0.258380000000    -0.129883   
C211     C      0.733990000000     0.748190000000     0.208120000000    -0.0233878  
C212     C      0.732250000000     0.814430000000     0.271500000000     0.10181    
C213     C      0.694650000000     0.776660000000     0.269430000000     0.419376   
C214     C      0.746050000000     0.736620000000     0.193730000000    -0.0384019  
C215     C      0.782120000000     0.729810000000     0.190910000000     0.0515686  
C216     C      0.732130000000     0.778050000000     0.250230000000     0.110936   
C217     C      0.601550000000     0.871440000000     0.348660000000    -0.221166   
C218     C      0.566780000000     0.982380000000     0.437310000000     0.0817739  
C219     C      0.529490000000     0.944350000000     0.439190000000     0.0812323  
C220     C      0.579130000000     0.970820000000     0.423920000000    -0.0947797  
C221     C      0.602350000000     0.938730000000     0.413350000000    -0.0378339  
C222     C      0.614130000000     0.926990000000     0.398540000000    -0.0226217  
C223     C      0.578860000000     0.933090000000     0.401820000000    -0.00184743 
C224     C      0.541230000000     0.932240000000     0.425640000000    -0.0949695  
C225     C      0.602720000000     0.909430000000     0.371730000000    -0.0262138  
C226     C      0.640330000000     0.909000000000     0.350330000000    -0.129003   
C227     C      0.579290000000     0.903960000000     0.360030000000    -0.0221565  
C228     C      0.651670000000     0.896340000000     0.337370000000     0.103758   
C229     C      0.613380000000     0.859270000000     0.335620000000     0.420291   
C230     C      0.567480000000     0.915610000000     0.374950000000    -0.0374029  
C231     C      0.566290000000     0.945520000000     0.417500000000     0.0532215  
C232     C      0.615010000000     0.896520000000     0.356530000000     0.112194   
C233     C      0.030870000000     0.526640000000     0.632710000000    -0.222493   
C234     C      0.983430000000     0.500610000000     0.856290000000     0.0778211  
C235     C      0.025090000000     0.532100000000     0.858770000000     0.0832743  
C236     C      0.983240000000     0.503100000000     0.819770000000    -0.0997275  
C237     C      0.990880000000     0.499660000000     0.742480000000    -0.0421702  
C238     C      0.991850000000     0.500420000000     0.705750000000    -0.0270137  
C239     C      0.005470000000     0.520930000000     0.762590000000     0.00230843 
C240     C      0.025730000000     0.534630000000     0.822140000000    -0.0942782  
C241     C      0.007830000000     0.522280000000     0.688210000000    -0.0242884  
C242     C      0.988780000000     0.517000000000     0.629000000000    -0.13686    
C243     C      0.022550000000     0.543540000000     0.707850000000    -0.0219483  
C244     C      0.989830000000     0.515220000000     0.592480000000     0.0997069  
C245     C      0.031210000000     0.524130000000     0.596140000000     0.422289   
C246     C      0.021170000000     0.542960000000     0.744670000000    -0.037007   
C247     C      0.004740000000     0.519780000000     0.801940000000     0.0571087  
C248     C      0.009350000000     0.522480000000     0.649430000000     0.117959   
C249     C      0.982180000000     0.475850000000     0.320090000000    -0.226592   
C250     C      0.028900000000     0.503200000000     0.096050000000     0.0823849  
C251     C      0.987730000000     0.470510000000     0.092470000000     0.0768923  
C252     C      0.028780000000     0.500370000000     0.132580000000    -0.0963205  
C253     C      0.021450000000     0.475690000000     0.207680000000    -0.0392067  
C254     C      0.020340000000     0.475020000000     0.244510000000    -0.0232857  
C255     C      0.006030000000     0.481430000000     0.188170000000     0.000903808
C256     C      0.986810000000     0.467610000000     0.129000000000    -0.101805   
C257     C      0.004190000000     0.480690000000     0.262590000000    -0.0224556  
C258     C      0.025030000000     0.488190000000     0.321830000000    -0.128763   
C259     C      0.988870000000     0.486530000000     0.242630000000    -0.0267021  
C260     C      0.024580000000     0.490200000000     0.358430000000     0.10364    
C261     C      0.982470000000     0.478690000000     0.356600000000     0.416426   
C262     C      0.989590000000     0.486600000000     0.205880000000    -0.0425991  
C263     C      0.007400000000     0.482800000000     0.149380000000     0.0572848  
C264     C      0.003750000000     0.481300000000     0.301950000000     0.114736   
C265     C      0.975080000000     0.575600000000     0.023330000000    -0.219819   
C266     C      0.862850000000     0.611140000000     0.106140000000     0.0783051  
C267     C      0.900310000000     0.649020000000     0.104590000000     0.078586   
C268     C      0.874650000000     0.598810000000     0.093570000000    -0.0963599  
C269     C      0.901570000000     0.581640000000     0.044890000000    -0.0390894  
C270     C      0.913650000000     0.570000000000     0.030830000000    -0.0241771  
C271     C      0.912540000000     0.599270000000     0.071670000000    -0.00332196 
C272     C      0.912700000000     0.637250000000     0.092210000000    -0.0963667  
C273     C      0.936960000000     0.575620000000     0.043340000000    -0.0271996  
C274     C      0.936490000000     0.537870000000     0.020720000000    -0.130415   
C275     C      0.947910000000     0.593250000000     0.070180000000    -0.0235587  
C276     C      0.948720000000     0.526040000000     0.008070000000     0.0996341  
C277     C      0.986860000000     0.563230000000     0.010730000000     0.413236   
C278     C      0.935870000000     0.604970000000     0.084120000000    -0.0385366  
C279     C      0.899830000000     0.611900000000     0.086180000000     0.0515338  
C280     C      0.949660000000     0.562920000000     0.028820000000     0.109282   
C281     C      0.364390000000     0.167990000000     0.800310000000    -0.222071   
C282     C      0.318590000000     0.146750000000     0.024320000000     0.0787645  
C283     C      0.360240000000     0.156710000000     0.025260000000     0.0786567  
C284     C      0.317770000000     0.143870000000     0.987780000000    -0.0953706  
C285     C      0.324160000000     0.154460000000     0.910170000000    -0.0384321  
C286     C      0.324830000000     0.154800000000     0.873400000000    -0.0232397  
C287     C      0.339040000000     0.147840000000     0.929780000000    -0.00255041 
C288     C      0.360260000000     0.154630000000     0.988620000000    -0.0951225  
C289     C      0.340790000000     0.149110000000     0.855330000000    -0.0285377  
C290     C      0.321780000000     0.137090000000     0.795690000000    -0.131967   
C291     C      0.355650000000     0.142450000000     0.874500000000    -0.0235855  
C292     C      0.323230000000     0.140480000000     0.759240000000     0.101538   
C293     C      0.365130000000     0.171450000000     0.763850000000     0.42047    
C294     C      0.354570000000     0.141510000000     0.911320000000    -0.0383505  
C295     C      0.338940000000     0.148460000000     0.969160000000     0.0509649  
C296     C      0.342450000000     0.151090000000     0.816560000000     0.112258   
C297     C      0.322840000000     0.175210000000     0.485700000000    -0.222318   
C298     C      0.368840000000     0.191640000000     0.262160000000     0.0786736  
C299     C      0.327350000000     0.182190000000     0.260830000000     0.0790849  
C300     C      0.369740000000     0.195150000000     0.298580000000    -0.0952604  
C301     C      0.363340000000     0.186350000000     0.376720000000    -0.0384546  
C302     C      0.362620000000     0.186780000000     0.413470000000    -0.0234536  
C303     C      0.348680000000     0.192800000000     0.356250000000    -0.00237725 
C304     C      0.327410000000     0.184930000000     0.297350000000    -0.0947825  
C305     C      0.346830000000     0.193100000000     0.430670000000    -0.0284604  
C306     C      0.365510000000     0.205950000000     0.490400000000    -0.131516   
C307     C      0.332240000000     0.199670000000     0.410640000000    -0.0230364  
C308     C      0.363830000000     0.203030000000     0.526940000000     0.102798   
C309     C      0.321870000000     0.172220000000     0.522280000000     0.419619   
C310     C      0.333380000000     0.199840000000     0.373830000000    -0.0379639  
C311     C      0.348710000000     0.191260000000     0.316940000000     0.0512405  
C312     C      0.344940000000     0.191750000000     0.469460000000     0.112409   
C313     C      0.434860000000     0.036510000000     0.520800000000    -0.221949   
C314     C      0.401470000000     0.148060000000     0.611480000000     0.081861   
C315     C      0.363010000000     0.111400000000     0.607020000000     0.0814009  
C316     C      0.413430000000     0.136120000000     0.598150000000    -0.0947807  
C317     C      0.430450000000     0.110220000000     0.547480000000    -0.0385485  
C318     C      0.441980000000     0.098240000000     0.532680000000    -0.023232   
C319     C      0.412230000000     0.098600000000     0.573350000000    -0.00213325 
C320     C      0.374420000000     0.098860000000     0.593810000000    -0.0947774  
C321     C      0.435620000000     0.074390000000     0.543520000000    -0.0269361  
C322     C      0.473240000000     0.074530000000     0.520840000000    -0.129661   
C323     C      0.417410000000     0.062800000000     0.569460000000    -0.022507   
C324     C      0.484720000000     0.062130000000     0.507440000000     0.101821   
C325     C      0.446860000000     0.024570000000     0.507540000000     0.418688   
C326     C      0.405800000000     0.074740000000     0.584140000000    -0.0378728  
C327     C      0.399890000000     0.111300000000     0.588810000000     0.0527931  
C328     C      0.448040000000     0.061690000000     0.528070000000     0.111102   
C329     C      0.098470000000     0.366620000000     0.852890000000    -0.2211     
C330     C      0.064080000000     0.477260000000     0.944080000000     0.0798734  
C331     C      0.025520000000     0.440730000000     0.939780000000     0.079435   
C332     C      0.075950000000     0.465170000000     0.930980000000    -0.0952092  
C333     C      0.097660000000     0.432260000000     0.919260000000    -0.038127   
C334     C      0.109580000000     0.420720000000     0.904290000000    -0.0226413  
C335     C      0.074650000000     0.427450000000     0.906570000000    -0.00197443 
C336     C      0.036830000000     0.428040000000     0.926680000000    -0.095192   
C337     C      0.098730000000     0.404030000000     0.876390000000    -0.0265778  
C338     C      0.136640000000     0.404860000000     0.853960000000    -0.129773   
C339     C      0.075640000000     0.399040000000     0.863860000000    -0.0221837  
C340     C      0.148450000000     0.392810000000     0.840510000000     0.103745   
C341     C      0.110810000000     0.355010000000     0.839630000000     0.422195   
C342     C      0.063760000000     0.410660000000     0.878730000000    -0.0373802  
C343     C      0.062320000000     0.440310000000     0.921780000000     0.0523659  
C344     C      0.111410000000     0.391720000000     0.860700000000     0.112681   
C345     C      0.311000000000     0.244960000000     0.691220000000    -0.220651   
C346     C      0.196320000000     0.277080000000     0.773730000000     0.0818111  
C347     C      0.233380000000     0.315350000000     0.774030000000     0.0829681  
C348     C      0.208680000000     0.265390000000     0.760890000000    -0.0946671  
C349     C      0.236800000000     0.250000000000     0.711780000000    -0.0379392  
C350     C      0.249310000000     0.238860000000     0.697490000000    -0.0230055  
C351     C      0.247210000000     0.267080000000     0.739330000000    -0.00184112 
C352     C      0.246330000000     0.304230000000     0.761390000000    -0.0941287  
C353     C      0.272480000000     0.244460000000     0.710540000000    -0.026378   
C354     C      0.272540000000     0.207180000000     0.687100000000    -0.129637   
C355     C      0.282920000000     0.261610000000     0.738050000000    -0.0225281  
C356     C      0.285040000000     0.195620000000     0.674450000000     0.103685   
C357     C      0.323040000000     0.232860000000     0.678590000000     0.420612   
C358     C      0.270440000000     0.272830000000     0.752230000000    -0.0375321  
C359     C      0.233940000000     0.279010000000     0.754250000000     0.0533005  
C360     C      0.285500000000     0.232100000000     0.695960000000     0.111731   
C361     C      0.487790000000     0.512800000000     0.631960000000    -0.222277   
C362     C      0.508990000000     0.487650000000     0.852670000000     0.0813934  
C363     C      0.469240000000     0.483070000000     0.856370000000     0.0837473  
C364     C      0.507550000000     0.486680000000     0.815980000000    -0.0961912  
C365     C      0.466120000000     0.467280000000     0.740910000000    -0.0380888  
C366     C      0.465680000000     0.468980000000     0.704170000000    -0.0221757  
C367     C      0.485820000000     0.485490000000     0.760340000000    -0.00202689 
C368     C      0.467000000000     0.481550000000     0.819700000000    -0.0934736  
C369     C      0.484630000000     0.489210000000     0.686510000000    -0.0277362  
C370     C      0.482450000000     0.472310000000     0.626240000000    -0.131581   
C371     C      0.504160000000     0.507510000000     0.706040000000    -0.0223949  
C372     C      0.484920000000     0.475630000000     0.589790000000     0.102158   
C373     C      0.489710000000     0.515430000000     0.595380000000     0.421486   
C374     C      0.504850000000     0.505560000000     0.742580000000    -0.0373889  
C375     C      0.486570000000     0.484040000000     0.799150000000     0.0538891  
C376     C      0.484490000000     0.491260000000     0.647720000000     0.113344   
C377     C      0.496870000000     0.520220000000     0.131100000000    -0.220186   
C378     C      0.519340000000     0.500940000000     0.353160000000     0.0800237  
C379     C      0.522440000000     0.540010000000     0.357210000000     0.0816508  
C380     C      0.521360000000     0.502990000000     0.316540000000    -0.0951017  
C381     C      0.535230000000     0.515210000000     0.240070000000    -0.0384919  
C382     C      0.533820000000     0.515060000000     0.203340000000    -0.0230873  
C383     C      0.524080000000     0.525600000000     0.260520000000    -0.00156284 
C384     C      0.524820000000     0.542810000000     0.320680000000    -0.0939289  
C385     C      0.521490000000     0.525580000000     0.186000000000    -0.0262425  
C386     C      0.537180000000     0.525210000000     0.125200000000    -0.130191   
C387     C      0.511080000000     0.536730000000     0.206420000000    -0.0216628  
C388     C      0.533420000000     0.521800000000     0.088930000000     0.102253   
C389     C      0.493750000000     0.517200000000     0.094650000000     0.422599   
C390     C      0.512220000000     0.536610000000     0.243170000000    -0.0369649  
C391     C      0.523780000000     0.523960000000     0.299700000000     0.0524008  
C392     C      0.518620000000     0.523970000000     0.146960000000     0.111846   
C393     C      0.829590000000     0.183670000000     0.799230000000    -0.222858   
C394     C      0.855620000000     0.196260000000     0.025040000000     0.0801744  
C395     C      0.851270000000     0.156700000000     0.019100000000     0.0812613  
C396     C      0.857450000000     0.199440000000     0.988500000000    -0.0961678  
C397     C      0.873060000000     0.202370000000     0.909820000000    -0.0386997  
C398     C      0.872030000000     0.203730000000     0.873090000000    -0.0230508  
C399     C      0.854420000000     0.182270000000     0.928120000000    -0.00290257 
C400     C      0.852540000000     0.159080000000     0.982510000000    -0.095916   
C401     C      0.852040000000     0.185310000000     0.854330000000    -0.0283201  
C402     C      0.869930000000     0.188520000000     0.794500000000    -0.131569   
C403     C      0.833290000000     0.165420000000     0.872750000000    -0.0228325  
C404     C      0.867200000000     0.186700000000     0.757920000000     0.101834   
C405     C      0.827560000000     0.182390000000     0.762550000000     0.420749   
C406     C      0.834580000000     0.163800000000     0.909260000000    -0.0382786  
C407     C      0.855290000000     0.180460000000     0.966870000000     0.05298    
C408     C      0.850730000000     0.186350000000     0.815530000000     0.112629   
C409     C      0.824190000000     0.129950000000     0.295090000000    -0.222859   
C410     C      0.808100000000     0.155750000000     0.522660000000     0.0808947  
C411     C      0.840410000000     0.146620000000     0.522590000000     0.0798065  
C412     C      0.805930000000     0.153090000000     0.486100000000    -0.093487   
C413     C      0.798090000000     0.138020000000     0.409590000000    -0.0382643  
C414     C      0.797550000000     0.137970000000     0.372740000000    -0.0229645  
C415     C      0.820260000000     0.145510000000     0.427860000000    -0.00185685 
C416     C      0.838320000000     0.143210000000     0.486150000000    -0.0947667  
C417     C      0.819010000000     0.144800000000     0.353470000000    -0.0288668  
C418     C      0.814870000000     0.162690000000     0.297110000000    -0.132468   
C419     C      0.841010000000     0.151720000000     0.371370000000    -0.0228322  
C420     C      0.817330000000     0.164830000000     0.260530000000     0.10131    
C421     C      0.825970000000     0.132110000000     0.258440000000     0.420569   
C422     C      0.841720000000     0.152340000000     0.408120000000    -0.0378625  
C423     C      0.821300000000     0.146990000000     0.467150000000     0.051791   
C424     C      0.818840000000     0.145470000000     0.314680000000     0.11294    
C425     C      0.178980000000     0.357620000000     0.648870000000    -0.222836   
C426     C      0.152270000000     0.347460000000     0.423580000000     0.0802348  
C427     C      0.158080000000     0.313010000000     0.427420000000     0.0812291  
C428     C      0.150390000000     0.347950000000     0.460200000000    -0.0960897  
C429     C      0.135260000000     0.333810000000     0.538440000000    -0.0386576  
C430     C      0.136360000000     0.335700000000     0.575200000000    -0.0228442  
C431     C      0.154090000000     0.333010000000     0.519640000000    -0.00268432 
C432     C      0.156760000000     0.313280000000     0.464090000000    -0.0955774  
C433     C      0.156580000000     0.337400000000     0.593520000000    -0.0280534  
C434     C      0.138820000000     0.321890000000     0.653140000000    -0.130756   
C435     C      0.175500000000     0.336860000000     0.574630000000    -0.0224733  
C436     C      0.141520000000     0.322440000000     0.689680000000     0.103214   
C437     C      0.180980000000     0.358000000000     0.685530000000     0.420189   
C438     C      0.174160000000     0.334480000000     0.538060000000    -0.0379103  
C439     C      0.153260000000     0.331110000000     0.480820000000     0.0530869  
C440     C      0.157940000000     0.339240000000     0.632350000000     0.112992   
C441     C      0.164930000000     0.312500000000     0.964580000000    -0.222642   
C442     C      0.190380000000     0.323040000000     0.189980000000     0.0813217  
C443     C      0.184350000000     0.357340000000     0.185900000000     0.0807554  
C444     C      0.192490000000     0.322610000000     0.153400000000    -0.0952248  
C445     C      0.208050000000     0.336780000000     0.075400000000    -0.0381925  
C446     C      0.207180000000     0.334810000000     0.038650000000    -0.0226327  
C447     C      0.189070000000     0.337550000000     0.093830000000    -0.00259163 
C448     C      0.185880000000     0.357130000000     0.149250000000    -0.0962428  
C449     C      0.187030000000     0.333000000000     0.019970000000    -0.0278139  
C450     C      0.205060000000     0.348290000000     0.960420000000    -0.131263   
C451     C      0.167990000000     0.333540000000     0.038490000000    -0.0225982  
C452     C      0.202520000000     0.347580000000     0.923830000000     0.102483   
C453     C      0.163100000000     0.311970000000     0.927890000000     0.421057   
C454     C      0.169100000000     0.336010000000     0.075060000000    -0.0378623  
C455     C      0.189620000000     0.339400000000     0.132660000000     0.0533808  
C456     C      0.185870000000     0.330990000000     0.981150000000     0.112998   
C457     C      0.944030000000     0.197050000000     0.185500000000    -0.219415   
C458     C      0.089130000000     0.310510000000     0.273150000000     0.079387   
C459     C      0.090550000000     0.273510000000     0.273940000000     0.0798121  
C460     C      0.065070000000     0.298030000000     0.260480000000    -0.0967403  
C461     C      0.010050000000     0.264210000000     0.251540000000    -0.0289408  
C462     C      0.986440000000     0.252030000000     0.237140000000    -0.0332844  
C463     C      0.028310000000     0.259430000000     0.239120000000    -0.00784416 
C464     C      0.066540000000     0.260480000000     0.261070000000    -0.0963068  
C465     C      0.980530000000     0.234850000000     0.209840000000    -0.0215123  
C466     C      0.942300000000     0.234340000000     0.189210000000    -0.129466   
C467     C      0.998810000000     0.230020000000     0.197500000000    -0.0325277  
C468     C      0.918370000000     0.221770000000     0.176090000000     0.100703   
C469     C      0.920060000000     0.184960000000     0.172300000000     0.420228   
C470     C      0.022400000000     0.242130000000     0.212020000000    -0.027986   
C471     C      0.053560000000     0.272760000000     0.253910000000     0.0543848  
C472     C      0.955370000000     0.221950000000     0.194520000000     0.108519   
C473     C      0.277820000000     0.373300000000     0.352680000000    -0.221894   
C474     C      0.422770000000     0.486360000000     0.440430000000     0.0812008  
C475     C      0.423380000000     0.448960000000     0.438510000000     0.0803195  
C476     C      0.398880000000     0.474700000000     0.426940000000    -0.0938643  
C477     C      0.343860000000     0.442120000000     0.414700000000    -0.0378801  
C478     C      0.320260000000     0.429900000000     0.400160000000    -0.0225378  
C479     C      0.362060000000     0.437030000000     0.402870000000    -0.00161939 
C480     C      0.399530000000     0.436740000000     0.425040000000    -0.0950713  
C481     C      0.314320000000     0.412290000000     0.373490000000    -0.0267888  
C482     C      0.275620000000     0.410410000000     0.351820000000    -0.130064   
C483     C      0.332610000000     0.407450000000     0.361350000000    -0.0224182  
C484     C      0.251590000000     0.396980000000     0.339150000000     0.100931   
C485     C      0.253730000000     0.360330000000     0.340130000000     0.418449   
C486     C      0.356180000000     0.419680000000     0.375830000000    -0.0376356  
C487     C      0.387070000000     0.449640000000     0.418630000000     0.0527536  
C488     C      0.288990000000     0.398560000000     0.358990000000     0.111424   
C489     C      0.542970000000     0.016480000000     0.626060000000    -0.221195   
C490     C      0.523360000000     0.985260000000     0.857450000000     0.0814191  
C491     C      0.520050000000     0.021120000000     0.853050000000     0.0814046  
C492     C      0.526290000000     0.985070000000     0.821020000000    -0.0942787  
C493     C      0.515230000000     0.979230000000     0.743060000000    -0.0374087  
C494     C      0.514970000000     0.978250000000     0.706290000000    -0.0224235  
C495     C      0.526550000000     0.001940000000     0.760750000000    -0.0013624  
C496     C      0.522610000000     0.021300000000     0.816500000000    -0.0941475  
C497     C      0.525770000000     0.999940000000     0.686160000000    -0.0257887  
C498     C      0.502640000000     0.981050000000     0.630160000000    -0.128717   
C499     C      0.537530000000     0.022630000000     0.703860000000    -0.0219647  
C500     C      0.500530000000     0.981320000000     0.593590000000     0.102988   
C501     C      0.540200000000     0.016480000000     0.589530000000     0.419496   
C502     C      0.538040000000     0.023610000000     0.740630000000    -0.0372254  
C503     C      0.525460000000     0.002950000000     0.799890000000     0.0528805  
C504     C      0.523910000000     0.998980000000     0.647000000000     0.111575   
C505     C      0.489150000000     0.977940000000     0.131980000000    -0.223119   
C506     C      0.474400000000     0.989370000000     0.356770000000     0.0810092  
C507     C      0.513700000000     0.025010000000     0.352250000000     0.0801308  
C508     C      0.471620000000     0.988650000000     0.320190000000    -0.0951204  
C509     C      0.469260000000     0.002120000000     0.241790000000    -0.0390728  
C510     C      0.468240000000     0.999910000000     0.205050000000    -0.0228092  
C511     C      0.489400000000     0.003860000000     0.260430000000    -0.00279307 
C512     C      0.511730000000     0.024530000000     0.315610000000    -0.0964298  
C513     C      0.487030000000     0.998790000000     0.186620000000    -0.0281468  
C514     C      0.483910000000     0.013190000000     0.126480000000    -0.131185   
C515     C      0.507020000000     0.000320000000     0.205350000000    -0.0227885  
C516     C      0.485860000000     0.012130000000     0.089950000000     0.103028   
C517     C      0.490540000000     0.977030000000     0.095350000000     0.420158   
C518     C      0.508290000000     0.003050000000     0.241880000000    -0.0380705  
C519     C      0.490690000000     0.005990000000     0.299240000000     0.0526493  
C520     C      0.486210000000     0.996350000000     0.147860000000     0.113138   
C521     C      0.610330000000     0.070020000000     0.020250000000    -0.221196   
C522     C      0.756620000000     0.103190000000     0.106130000000     0.0800471  
C523     C      0.756210000000     0.140670000000     0.108730000000     0.0793779  
C524     C      0.732580000000     0.091050000000     0.093250000000    -0.0945316  
C525     C      0.688250000000     0.074080000000     0.045640000000    -0.0378695  
C526     C      0.664650000000     0.062690000000     0.031170000000    -0.0230526  
C527     C      0.694880000000     0.091680000000     0.072520000000    -0.00216337 
C528     C      0.732210000000     0.129130000000     0.095790000000    -0.0952144  
C529     C      0.647140000000     0.068700000000     0.043130000000    -0.0264884  
C530     C      0.609290000000     0.031260000000     0.021420000000    -0.128992   
C531     C      0.653730000000     0.086280000000     0.069990000000    -0.0228333  
C532     C      0.585330000000     0.019960000000     0.008370000000     0.10343    
C533     C      0.586370000000     0.058230000000     0.007020000000     0.41916    
C534     C      0.677300000000     0.097590000000     0.084560000000    -0.0377628  
C535     C      0.720130000000     0.104060000000     0.087540000000     0.0520314  
C536     C      0.621990000000     0.056530000000     0.027920000000     0.111608   
C537     C      0.196640000000     0.832600000000     0.652440000000    -0.219653   
C538     C      0.173670000000     0.855120000000     0.427770000000     0.0807521  
C539     C      0.206280000000     0.846400000000     0.424840000000     0.0808583  
C540     C      0.175950000000     0.857290000000     0.464400000000    -0.0955073  
C541     C      0.200890000000     0.873960000000     0.539960000000    -0.0385929  
C542     C      0.201090000000     0.873190000000     0.576780000000    -0.0228171  
C543     C      0.194070000000     0.852650000000     0.520290000000    -0.00254557 
C544     C      0.208630000000     0.847840000000     0.461450000000    -0.0960517  
C545     C      0.193850000000     0.850910000000     0.594660000000    -0.02566    
C546     C      0.186520000000     0.864770000000     0.653430000000    -0.129282   
C547     C      0.187020000000     0.829620000000     0.574530000000    -0.0217046  
C548     C      0.184080000000     0.862350000000     0.689970000000     0.102716   
C549     C      0.193450000000     0.830190000000     0.688940000000     0.422803   
C550     C      0.187410000000     0.830560000000     0.537780000000    -0.0375545  
C551     C      0.193210000000     0.853090000000     0.481510000000     0.0533248  
C552     C      0.192600000000     0.849610000000     0.633960000000     0.111496   
C553     C      0.179880000000     0.819760000000     0.148890000000    -0.222734   
C554     C      0.151410000000     0.802950000000     0.924890000000     0.0835602  
C555     C      0.156790000000     0.843040000000     0.928380000000     0.0810281  
C556     C      0.149510000000     0.800660000000     0.961550000000    -0.093238   
C557     C      0.134740000000     0.799910000000     0.040060000000    -0.038435   
C558     C      0.136210000000     0.799280000000     0.076820000000    -0.0222501  
C559     C      0.153280000000     0.819510000000     0.020860000000    -0.0018847  
C560     C      0.155450000000     0.841540000000     0.965060000000    -0.0961888  
C561     C      0.156550000000     0.817910000000     0.094720000000    -0.0279292  
C562     C      0.139980000000     0.815760000000     0.155270000000    -0.130741   
C563     C      0.175130000000     0.837380000000     0.075440000000    -0.0222092  
C564     C      0.143400000000     0.817780000000     0.191750000000     0.103081   
C565     C      0.182600000000     0.821240000000     0.185460000000     0.419936   
C566     C      0.173410000000     0.838280000000     0.038890000000    -0.0377382  
C567     C      0.152190000000     0.820350000000     0.982000000000     0.0534407  
C568     C      0.158600000000     0.817360000000     0.133470000000     0.113131   
C569     C      0.276130000000     0.866390000000     0.854910000000    -0.220364   
C570     C      0.423410000000     0.977070000000     0.939330000000     0.0799093  
C571     C      0.422940000000     0.939130000000     0.941130000000     0.0811271  
C572     C      0.399340000000     0.965380000000     0.926680000000    -0.0953105  
C573     C      0.344060000000     0.933560000000     0.917740000000    -0.0382883  
C574     C      0.320390000000     0.921990000000     0.903520000000    -0.0231412  
C575     C      0.361550000000     0.927460000000     0.905960000000    -0.00189253 
C576     C      0.398880000000     0.926860000000     0.928360000000    -0.0943457  
C577     C      0.313650000000     0.904070000000     0.877100000000    -0.0263621  
C578     C      0.276080000000     0.904610000000     0.855640000000    -0.130062   
C579     C      0.331160000000     0.897980000000     0.865320000000    -0.0220293  
C580     C      0.252070000000     0.892420000000     0.842710000000     0.101838   
C581     C      0.252110000000     0.854690000000     0.841950000000     0.422028   
C582     C      0.354820000000     0.909520000000     0.879610000000    -0.0371968  
C583     C      0.386840000000     0.940010000000     0.920690000000     0.0526306  
C584     C      0.288360000000     0.891580000000     0.862230000000     0.111759   
C585     C      0.816550000000     0.687060000000     0.790780000000    -0.221795   
C586     C      0.807730000000     0.656880000000     0.022340000000     0.0785319  
C587     C      0.846870000000     0.692570000000     0.017180000000     0.0783967  
C588     C      0.804200000000     0.656590000000     0.986000000000    -0.0962352  
C589     C      0.808400000000     0.650360000000     0.907960000000    -0.0391448  
C590     C      0.807160000000     0.649210000000     0.871220000000    -0.0242745  
C591     C      0.820090000000     0.673150000000     0.925420000000    -0.00305187 
C592     C      0.844090000000     0.692630000000     0.980680000000    -0.0958411  
C593     C      0.817860000000     0.670800000000     0.850880000000    -0.0272719  
C594     C      0.821410000000     0.651540000000     0.794840000000    -0.130307   
C595     C      0.829110000000     0.693580000000     0.868350000000    -0.0235693  
C596     C      0.823420000000     0.651620000000     0.758250000000     0.100401   
C597     C      0.818940000000     0.686850000000     0.754200000000     0.417526   
C598     C      0.830090000000     0.694740000000     0.905120000000    -0.0387354  
C599     C      0.822680000000     0.674310000000     0.964500000000     0.0509694  
C600     C      0.818300000000     0.669620000000     0.811710000000     0.109605   
C601     C      0.861320000000     0.659990000000     0.484720000000    -0.222596   
C602     C      0.833390000000     0.649470000000     0.259090000000     0.0789623  
C603     C      0.872720000000     0.685100000000     0.254850000000     0.0784285  
C604     C      0.835080000000     0.650060000000     0.295750000000    -0.0971272  
C605     C      0.837810000000     0.671320000000     0.369310000000    -0.0393448  
C606     C      0.838630000000     0.673670000000     0.405880000000    -0.0234936  
C607     C      0.856980000000     0.670810000000     0.351100000000    -0.00356978 
C608     C      0.875210000000     0.685950000000     0.291490000000    -0.0968588  
C609     C      0.858440000000     0.675130000000     0.425010000000    -0.0289046  
C610     C      0.854780000000     0.694490000000     0.480320000000    -0.132368   
C611     C      0.877570000000     0.674430000000     0.406900000000    -0.0234792  
C612     C      0.852920000000     0.694580000000     0.516910000000     0.101068   
C613     C      0.858900000000     0.660230000000     0.521310000000     0.417963   
C614     C      0.876990000000     0.672580000000     0.370120000000    -0.03912    
C615     C      0.855970000000     0.668670000000     0.312290000000     0.0520097  
C616     C      0.858640000000     0.676830000000     0.463860000000     0.111496   
C617     C      0.610200000000     0.579350000000     0.520080000000    -0.220826   
C618     C      0.757030000000     0.613770000000     0.604530000000     0.0807551  
C619     C      0.757550000000     0.651720000000     0.602180000000     0.0810754  
C620     C      0.733000000000     0.601460000000     0.591620000000    -0.0944941  
C621     C      0.677910000000     0.578680000000     0.580980000000    -0.0384175  
C622     C      0.654150000000     0.566920000000     0.567030000000    -0.0231539  
C623     C      0.695700000000     0.601960000000     0.568640000000    -0.00204631 
C624     C      0.733530000000     0.639990000000     0.589310000000    -0.0944361  
C625     C      0.647580000000     0.578190000000     0.540480000000    -0.0269914  
C626     C      0.609500000000     0.540760000000     0.519090000000    -0.130523   
C627     C      0.665390000000     0.601410000000     0.528020000000    -0.0227914  
C628     C      0.585390000000     0.529490000000     0.506560000000     0.101156   
C629     C      0.586030000000     0.567560000000     0.507690000000     0.421003   
C630     C      0.689160000000     0.613130000000     0.541880000000    -0.0377839  
C631     C      0.721000000000     0.614590000000     0.583500000000     0.0522265  
C632     C      0.622160000000     0.565950000000     0.526240000000     0.111412   
C633     C      0.065140000000     0.764730000000     0.758930000000    -0.221987   
C634     C      0.919870000000     0.732690000000     0.670820000000     0.0801792  
C635     C      0.919240000000     0.694680000000     0.673120000000     0.0811481  
C636     C      0.943890000000     0.744930000000     0.683790000000    -0.0938113  
C637     C      0.987850000000     0.762160000000     0.732960000000    -0.0485426  
C638     C      0.011390000000     0.773340000000     0.747690000000    -0.0135891  
C639     C      0.981080000000     0.744220000000     0.706600000000     0.00305285 
C640     C      0.943260000000     0.706340000000     0.685960000000    -0.0937696  
C641     C      0.028700000000     0.766860000000     0.736330000000    -0.0321433  
C642     C      0.066490000000     0.803630000000     0.760090000000    -0.131312   
C643     C      0.021970000000     0.749100000000     0.709690000000    -0.0128115  
C644     C      0.090290000000     0.814400000000     0.773690000000     0.10141    
C645     C      0.088990000000     0.776020000000     0.772480000000     0.421053   
C646     C      0.998450000000     0.737890000000     0.695050000000    -0.0476637  
C647     C      0.955820000000     0.731730000000     0.691760000000     0.049955   
C648     C      0.053700000000     0.778550000000     0.752110000000     0.113687   
F1       F      0.661660000000     0.904630000000     0.773870000000    -0.449773   
F2       F      0.835880000000     0.241300000000     0.615200000000    -0.450195   
F3       F      0.080760000000     0.573880000000     0.449370000000    -0.447384   
F4       F      0.496940000000     0.572250000000     0.946100000000    -0.446927   
F5       F      0.176960000000     0.908210000000     0.282300000000    -0.45529    
F6       F      0.427770000000     0.429650000000     0.002100000000    -0.44647    
F7       F      0.711290000000     0.864930000000     0.412080000000    -0.454595   
F8       F      0.627040000000     0.839190000000     0.905340000000    -0.449772   
F9       F      0.670050000000     0.762730000000     0.274780000000    -0.452196   
F10      F      0.599240000000     0.834850000000     0.328930000000    -0.451324   
F11      F      0.052510000000     0.528030000000     0.581210000000    -0.446842   
F12      F      0.960960000000     0.473220000000     0.372540000000    -0.456298   
F13      F      0.011560000000     0.576600000000     0.005990000000    -0.450251   
F14      F      0.386890000000     0.188340000000     0.749440000000    -0.451052   
F15      F      0.299980000000     0.155650000000     0.536690000000    -0.454612   
F16      F      0.432960000000     0.000100000000     0.501050000000    -0.454824   
F17      F      0.097230000000     0.330550000000     0.832930000000    -0.448254   
F18      F      0.347810000000     0.246360000000     0.674610000000    -0.45005    
F19      F      0.493310000000     0.536970000000     0.581680000000    -0.44718    
F20      F      0.472000000000     0.513110000000     0.081090000000    -0.442751   
F21      F      0.806370000000     0.179340000000     0.748320000000    -0.450291   
F22      F      0.831630000000     0.116770000000     0.240810000000    -0.447774   
F23      F      0.202070000000     0.376080000000     0.700010000000    -0.453522   
F24      F      0.142100000000     0.293790000000     0.913350000000    -0.448424   
F25      F      0.910010000000     0.160710000000     0.164540000000    -0.447526   
F26      F      0.243950000000     0.335810000000     0.334820000000    -0.45539    
F27      F      0.559350000000     0.034000000000     0.570750000000    -0.454546   
F28      F      0.493830000000     0.958930000000     0.081520000000    -0.453579   
F29      F      0.576060000000     0.072360000000     0.000260000000    -0.454967   
F30      F      0.197570000000     0.813300000000     0.705260000000    -0.442276   
F31      F      0.203890000000     0.823940000000     0.198800000000    -0.453851   
F32      F      0.241230000000     0.830160000000     0.835760000000    -0.444713   
F33      F      0.817180000000     0.704340000000     0.735410000000    -0.456419   
F34      F      0.861300000000     0.643190000000     0.540280000000    -0.455923   
F35      F      0.575440000000     0.581620000000     0.502520000000    -0.44748    
F36      F      0.099010000000     0.761540000000     0.778450000000    -0.447955   
H1       H      0.764640000000     0.097100000000     0.669980000000     0.0320361  
H2       H      0.734710000000     0.906440000000     0.775310000000     0.0198055  
H3       H      0.738890000000     0.032070000000     0.744100000000     0.0440936  
H4       H      0.759190000000     0.970240000000     0.699040000000     0.0369759  
H5       H      0.756200000000     0.948160000000     0.753710000000     0.0635316  
H6       H      0.780410000000     0.011740000000     0.674970000000     0.0410405  
H7       H      0.687830000000     0.948500000000     0.750550000000     0.119356   
H8       H      0.742550000000     0.055150000000     0.691130000000     0.0587367  
H9       H      0.810250000000     0.053250000000     0.691400000000     0.054631   
H10      H      0.717570000000     0.990510000000     0.768010000000     0.0426247  
H11      H      0.831700000000     0.095000000000     0.669540000000     0.0245122  
H12      H      0.937440000000     0.429510000000     0.503480000000     0.0301106  
H13      H      0.906970000000     0.239280000000     0.610740000000     0.0197644  
H14      H      0.904060000000     0.346450000000     0.510470000000     0.0428657  
H15      H      0.943410000000     0.323830000000     0.605420000000     0.0372617  
H16      H      0.929310000000     0.280770000000     0.588110000000     0.0633603  
H17      H      0.964940000000     0.365270000000     0.581030000000     0.0415267  
H18      H      0.862920000000     0.284850000000     0.591330000000     0.119067   
H19      H      0.916360000000     0.387920000000     0.525720000000     0.0568767  
H20      H      0.985330000000     0.388570000000     0.529140000000     0.0544865  
H21      H      0.882470000000     0.305200000000     0.535250000000     0.0415255  
H22      H      0.006010000000     0.430500000000     0.507730000000     0.034519   
H23      H      0.171540000000     0.761030000000     0.333740000000     0.0293103  
H24      H      0.008560000000     0.573660000000     0.443600000000     0.0248711  
H25      H      0.131090000000     0.699550000000     0.413540000000     0.0440826  
H26      H      0.048470000000     0.638450000000     0.369460000000     0.0383852  
H27      H      0.028600000000     0.615340000000     0.421610000000     0.0660763  
H28      H      0.069460000000     0.679670000000     0.344230000000     0.0421293  
H29      H      0.098120000000     0.617280000000     0.424950000000     0.120636   
H30      H      0.150080000000     0.719440000000     0.356510000000     0.0585592  
H31      H      0.083300000000     0.722870000000     0.361500000000     0.0559172  
H32      H      0.110010000000     0.658580000000     0.439270000000     0.0443628  
H33      H      0.105210000000     0.764410000000     0.338530000000     0.0259046  
H34      H      0.595170000000     0.760710000000     0.829820000000     0.0335543  
H35      H      0.569770000000     0.573660000000     0.942430000000     0.0194646  
H36      H      0.562440000000     0.677550000000     0.839710000000     0.0443445  
H37      H      0.603160000000     0.657560000000     0.935810000000     0.0376073  
H38      H      0.590640000000     0.614980000000     0.919210000000     0.0636219  
H39      H      0.623780000000     0.698650000000     0.910270000000     0.0416503  
H40      H      0.522560000000     0.615900000000     0.921650000000     0.121235   
H41      H      0.574390000000     0.719350000000     0.853120000000     0.060202   
H42      H      0.643700000000     0.720740000000     0.857420000000     0.0551282  
H43      H      0.541740000000     0.636580000000     0.865610000000     0.0436722  
H44      H      0.664040000000     0.762360000000     0.834950000000     0.0248355  
H45      H      0.275430000000     0.095080000000     0.170990000000     0.0243957  
H46      H      0.247860000000     0.905840000000     0.277420000000     0.0257621  
H47      H      0.244330000000     0.012490000000     0.176540000000     0.0410345  
H48      H      0.284430000000     0.990690000000     0.271400000000     0.0377241  
H49      H      0.270260000000     0.947290000000     0.254500000000     0.0659163  
H50      H      0.305440000000     0.032180000000     0.247010000000     0.0407338  
H51      H      0.204010000000     0.951610000000     0.258040000000     0.117939   
H52      H      0.255470000000     0.053430000000     0.192740000000     0.0553413  
H53      H      0.325530000000     0.056320000000     0.195380000000     0.0540181  
H54      H      0.223260000000     0.971250000000     0.201340000000     0.0413959  
H55      H      0.345120000000     0.098400000000     0.174430000000     0.0236852  
H56      H      0.342040000000     0.239210000000     0.111110000000     0.0247468  
H57      H      0.500140000000     0.430050000000     0.002200000000     0.0194962  
H58      H      0.380710000000     0.303190000000     0.035370000000     0.0420719  
H59      H      0.461920000000     0.366990000000     0.080240000000     0.0367277  
H60      H      0.480900000000     0.388530000000     0.024770000000     0.063348   
H61      H      0.442310000000     0.325970000000     0.105960000000     0.0400692  
H62      H      0.411220000000     0.386210000000     0.026450000000     0.120139   
H63      H      0.361230000000     0.280810000000     0.088540000000     0.0558985  
H64      H      0.431620000000     0.284480000000     0.091990000000     0.0540854  
H65      H      0.400260000000     0.344280000000     0.009910000000     0.0419671  
H66      H      0.412010000000     0.243150000000     0.115280000000     0.0237268  
H67      H      0.629340000000     0.822230000000     0.693470000000     0.0320372  
H68      H      0.644170000000     0.789020000000     0.403820000000     0.0306518  
H69      H      0.664460000000     0.849990000000     0.585120000000     0.0448433  
H70      H      0.669890000000     0.783870000000     0.521450000000     0.040529   
H71      H      0.641630000000     0.784130000000     0.467390000000     0.0703175  
H72      H      0.665570000000     0.781850000000     0.585940000000     0.0438405  
H73      H      0.704880000000     0.856170000000     0.478370000000     0.119038   
H74      H      0.630380000000     0.819360000000     0.629800000000     0.0598907  
H75      H      0.694060000000     0.810770000000     0.638450000000     0.056855   
H76      H      0.669240000000     0.852240000000     0.521070000000     0.04366    
H77      H      0.692930000000     0.814200000000     0.702140000000     0.0249171  
H78      H      0.632680000000     0.818780000000     0.195960000000     0.0341986  
H79      H      0.706970000000     0.859130000000     0.908120000000     0.0194815  
H80      H      0.643810000000     0.866620000000     0.086180000000     0.0457923  
H81      H      0.697490000000     0.842570000000     0.022540000000     0.0362576  
H82      H      0.709060000000     0.864570000000     0.971090000000     0.0631764  
H83      H      0.697460000000     0.842980000000     0.086640000000     0.0431005  
H84      H      0.632530000000     0.844270000000     0.971940000000     0.11967    
H85      H      0.632480000000     0.823310000000     0.132260000000     0.0616889  
H86      H      0.707020000000     0.883110000000     0.136870000000     0.0574636  
H87      H      0.644890000000     0.868030000000     0.021850000000     0.0426364  
H88      H      0.706580000000     0.878780000000     0.200540000000     0.0263869  
H89      H      0.770760000000     0.672910000000     0.168630000000     0.0236162  
H90      H      0.742920000000     0.833960000000     0.276830000000     0.0232938  
H91      H      0.737100000000     0.723280000000     0.172930000000     0.0412323  
H92      H      0.777530000000     0.784980000000     0.267700000000     0.0371932  
H93      H      0.764460000000     0.814130000000     0.253830000000     0.0641312  
H94      H      0.798620000000     0.764870000000     0.242420000000     0.0403686  
H95      H      0.696340000000     0.745260000000     0.251250000000     0.118384   
H96      H      0.749770000000     0.693620000000     0.190910000000     0.0550859  
H97      H      0.817840000000     0.762560000000     0.186850000000     0.0540949  
H98      H      0.716090000000     0.743530000000     0.197870000000     0.0412217  
H99      H      0.838420000000     0.741280000000     0.164890000000     0.0234317  
H100     H      0.510030000000     0.933370000000     0.444810000000     0.0272488  
H101     H      0.671360000000     0.906810000000     0.333330000000     0.025889   
H102     H      0.549550000000     0.911190000000     0.365080000000     0.0433812  
H103     H      0.631980000000     0.931350000000     0.408590000000     0.0393641  
H104     H      0.651420000000     0.928510000000     0.355400000000     0.0662697  
H105     H      0.611470000000     0.951910000000     0.434290000000     0.0433729  
H106     H      0.581950000000     0.861020000000     0.353340000000     0.119792   
H107     H      0.530720000000     0.912570000000     0.421600000000     0.0580107  
H108     H      0.598490000000     0.981790000000     0.417810000000     0.056969   
H109     H      0.570140000000     0.890840000000     0.339040000000     0.0427082  
H110     H      0.577370000000     0.002070000000     0.441330000000     0.0295972  
H111     H      0.041900000000     0.543610000000     0.873160000000     0.0294102  
H112     H      0.973280000000     0.510540000000     0.577760000000     0.0211799  
H113     H      0.032380000000     0.559850000000     0.758960000000     0.0449295  
H114     H      0.980530000000     0.483750000000     0.690990000000     0.0389754  
H115     H      0.971850000000     0.513780000000     0.641240000000     0.0664666  
H116     H      0.979040000000     0.482170000000     0.754980000000     0.0407567  
H117     H      0.047120000000     0.531010000000     0.647990000000     0.122401   
H118     H      0.042920000000     0.547610000000     0.809850000000     0.0587632  
H119     H      0.966260000000     0.491770000000     0.805720000000     0.0548926  
H120     H      0.034920000000     0.560620000000     0.694680000000     0.0452009  
H121     H      0.966510000000     0.487100000000     0.868780000000     0.0240872  
H122     H      0.971250000000     0.458580000000     0.077680000000     0.0237027  
H123     H      0.041660000000     0.496150000000     0.372480000000     0.0270005  
H124     H      0.977730000000     0.491360000000     0.191250000000     0.0434654  
H125     H      0.032120000000     0.469970000000     0.258690000000     0.0368746  
H126     H      0.042290000000     0.492870000000     0.309310000000     0.0660855  
H127     H      0.034210000000     0.471550000000     0.194390000000     0.0423672  
H128     H      0.964990000000     0.469480000000     0.306220000000     0.116953   
H129     H      0.969990000000     0.453780000000     0.141310000000     0.0561164  
H130     H      0.045010000000     0.512450000000     0.147720000000     0.0589898  
H131     H      0.976640000000     0.491660000000     0.255240000000     0.0410329  
H132     H      0.045620000000     0.517450000000     0.084050000000     0.0284289  
H133     H      0.910960000000     0.668720000000     0.108390000000     0.0235647  
H134     H      0.937670000000     0.506550000000     0.002650000000     0.0191653  
H135     H      0.944670000000     0.618260000000     0.105040000000     0.0408771  
H136     H      0.904840000000     0.556810000000     0.009810000000     0.0358501  
H137     H      0.916840000000     0.527230000000     0.024870000000     0.0623328  
H138     H      0.883780000000     0.577140000000     0.034340000000     0.0398037  
H139     H      0.985900000000     0.595110000000     0.028580000000     0.11625    
H140     H      0.932150000000     0.648090000000     0.086600000000     0.054793   
H141     H      0.864090000000     0.579120000000     0.089750000000     0.0538563  
H142     H      0.965650000000     0.597720000000     0.080880000000     0.0403963  
H143     H      0.843300000000     0.600310000000     0.111260000000     0.0232907  
H144     H      0.377300000000     0.162020000000     0.039030000000     0.023703   
H145     H      0.306630000000     0.129440000000     0.744140000000     0.0202301  
H146     H      0.365940000000     0.135810000000     0.925200000000     0.0401158  
H147     H      0.313410000000     0.160260000000     0.859050000000     0.0390569  
H148     H      0.304520000000     0.123750000000     0.807540000000     0.0645378  
H149     H      0.312400000000     0.160060000000     0.923070000000     0.0404385  
H150     H      0.380720000000     0.179050000000     0.815900000000     0.119777   
H151     H      0.377230000000     0.158710000000     0.975730000000     0.0544774  
H152     H      0.300570000000     0.138240000000     0.974350000000     0.0535843  
H153     H      0.368010000000     0.137880000000     0.860960000000     0.0407112  
H154     H      0.301910000000     0.143500000000     0.037430000000     0.023649   
H155     H      0.310320000000     0.176870000000     0.246970000000     0.0246331  
H156     H      0.380370000000     0.214160000000     0.542110000000     0.0234843  
H157     H      0.322210000000     0.205480000000     0.359270000000     0.0415908  
H158     H      0.373830000000     0.181380000000     0.428510000000     0.0379552  
H159     H      0.382870000000     0.219020000000     0.478550000000     0.0658664  
H160     H      0.374940000000     0.180260000000     0.364520000000     0.0398206  
H161     H      0.306570000000     0.164040000000     0.470060000000     0.119026   
H162     H      0.310520000000     0.181300000000     0.310050000000     0.0553539  
H163     H      0.386900000000     0.200790000000     0.312120000000     0.0534079  
H164     H      0.320020000000     0.204730000000     0.423500000000     0.0424034  
H165     H      0.385420000000     0.194440000000     0.249230000000     0.0232427  
H166     H      0.343210000000     0.101170000000     0.609920000000     0.0281546  
H167     H      0.504340000000     0.072840000000     0.502820000000     0.0239731  
H168     H      0.392050000000     0.065430000000     0.604340000000     0.0427346  
H169     H      0.455640000000     0.107570000000     0.512380000000     0.0366408  
H170     H      0.484240000000     0.093990000000     0.526290000000     0.0650801  
H171     H      0.435530000000     0.128460000000     0.538230000000     0.0411094  
H172     H      0.415220000000     0.025990000000     0.525200000000     0.117702   
H173     H      0.363250000000     0.079680000000     0.586750000000     0.0569782  
H174     H      0.433220000000     0.146300000000     0.595230000000     0.0569644  
H175     H      0.412370000000     0.044610000000     0.578890000000     0.0417731  
H176     H      0.412690000000     0.167340000000     0.618060000000     0.0305149  
H177     H      0.005740000000     0.430570000000     0.942850000000     0.0251374  
H178     H      0.168070000000     0.403770000000     0.836100000000     0.0248499  
H179     H      0.046240000000     0.406830000000     0.867920000000     0.0425842  
H180     H      0.127160000000     0.424620000000     0.914930000000     0.0384215  
H181     H      0.147260000000     0.424400000000     0.859050000000     0.0667448  
H182     H      0.106400000000     0.444760000000     0.941030000000     0.0416527  
H183     H      0.078920000000     0.355810000000     0.857830000000     0.119854   
H184     H      0.025610000000     0.408710000000     0.920510000000     0.0560198  
H185     H      0.095660000000     0.475490000000     0.927290000000     0.0564108  
H186     H      0.066930000000     0.386470000000     0.842130000000     0.0423651  
H187     H      0.075380000000     0.496590000000     0.950360000000     0.0267239  
H188     H      0.243660000000     0.334990000000     0.778660000000     0.031244   
H189     H      0.274130000000     0.176210000000     0.668430000000     0.0247999  
H190     H      0.278820000000     0.285720000000     0.773710000000     0.0433205  
H191     H      0.240910000000     0.226060000000     0.675930000000     0.0386737  
H192     H      0.252850000000     0.196400000000     0.690670000000     0.0652195  
H193     H      0.219110000000     0.245500000000     0.700860000000     0.042438   
H194     H      0.321670000000     0.264380000000     0.697090000000     0.119156   
H195     H      0.265830000000     0.315460000000     0.756420000000     0.0588841  
H196     H      0.198480000000     0.245780000000     0.756230000000     0.0568209  
H197     H      0.300540000000     0.266050000000     0.749130000000     0.0424891  
H198     H      0.176730000000     0.265860000000     0.778210000000     0.0294176  
H199     H      0.453980000000     0.481820000000     0.871360000000     0.0357469  
H200     H      0.483830000000     0.460670000000     0.574200000000     0.0203397  
H201     H      0.520130000000     0.519940000000     0.757050000000     0.0439008  
H202     H      0.450430000000     0.454670000000     0.689590000000     0.0399293  
H203     H      0.479890000000     0.455370000000     0.637610000000     0.0658929  
H204     H      0.451260000000     0.451640000000     0.754100000000     0.0443461  
H205     H      0.489170000000     0.527720000000     0.647950000000     0.121886   
H206     H      0.450480000000     0.479470000000     0.807480000000     0.0612298  
H207     H      0.522930000000     0.488400000000     0.800830000000     0.0561692  
H208     H      0.519070000000     0.523180000000     0.692960000000     0.0437352  
H209     H      0.525790000000     0.490200000000     0.864590000000     0.0244292  
H210     H      0.522910000000     0.554890000000     0.372300000000     0.0319811  
H211     H      0.548260000000     0.522600000000     0.073340000000     0.019294   
H212     H      0.503170000000     0.544570000000     0.257920000000     0.044072   
H213     H      0.541850000000     0.506050000000     0.188640000000     0.0356869  
H214     H      0.554560000000     0.528670000000     0.136040000000     0.0631798  
H215     H      0.544890000000     0.506930000000     0.252410000000     0.0399564  
H216     H      0.481860000000     0.518820000000     0.146840000000     0.121174   
H217     H      0.527270000000     0.559620000000     0.309010000000     0.0586832  
H218     H      0.520150000000     0.487770000000     0.301570000000     0.0545681  
H219     H      0.501800000000     0.545400000000     0.194060000000     0.0437304  
H220     H      0.516980000000     0.484150000000     0.364900000000     0.0241602  
H221     H      0.848720000000     0.139650000000     0.030080000000     0.0290745  
H222     H      0.882300000000     0.187800000000     0.742680000000     0.0201748  
H223     H      0.819910000000     0.148230000000     0.922860000000     0.0428921  
H224     H      0.886670000000     0.219240000000     0.859380000000     0.0386604  
H225     H      0.886590000000     0.190640000000     0.806290000000     0.0654473  
H226     H      0.888540000000     0.216800000000     0.923880000000     0.0423898  
H227     H      0.814500000000     0.182220000000     0.814860000000     0.119986   
H228     H      0.851040000000     0.144130000000     0.966490000000     0.0574667  
H229     H      0.859600000000     0.216240000000     0.977210000000     0.0561475  
H230     H      0.817800000000     0.150910000000     0.858800000000     0.0421999  
H231     H      0.856680000000     0.211110000000     0.040890000000     0.0241708  
H232     H      0.854100000000     0.143900000000     0.536040000000     0.0241425  
H233     H      0.814660000000     0.178840000000     0.248000000000     0.0191887  
H234     H      0.859280000000     0.158790000000     0.420900000000     0.0410499  
H235     H      0.780360000000     0.132470000000     0.359280000000     0.0388814  
H236     H      0.810710000000     0.175000000000     0.311670000000     0.0651924  
H237     H      0.781060000000     0.132140000000     0.423630000000     0.0414714  
H238     H      0.827300000000     0.116390000000     0.308160000000     0.121067   
H239     H      0.850130000000     0.137740000000     0.473070000000     0.0550756  
H240     H      0.792720000000     0.156590000000     0.472850000000     0.0565963  
H241     H      0.857820000000     0.157290000000     0.356850000000     0.0425733  
H242     H      0.796090000000     0.160890000000     0.536040000000     0.0316935  
H243     H      0.161240000000     0.299140000000     0.415560000000     0.0296897  
H244     H      0.126470000000     0.308220000000     0.704710000000     0.0260473  
H245     H      0.189000000000     0.334100000000     0.524070000000     0.0445046  
H246     H      0.121580000000     0.336100000000     0.589280000000     0.0392334  
H247     H      0.122250000000     0.307400000000     0.641160000000     0.0665357  
H248     H      0.119610000000     0.332690000000     0.524720000000     0.0420904  
H249     H      0.194000000000     0.371500000000     0.633420000000     0.120008   
H250     H      0.158810000000     0.299810000000     0.479310000000     0.0579113  
H251     H      0.147660000000     0.362000000000     0.472340000000     0.0572093  
H252     H      0.191170000000     0.337940000000     0.588250000000     0.0428317  
H253     H      0.150640000000     0.361260000000     0.408550000000     0.0249002  
H254     H      0.181010000000     0.371130000000     0.197660000000     0.0249479  
H255     H      0.217610000000     0.361770000000     0.908820000000     0.0225244  
H256     H      0.154150000000     0.336350000000     0.088760000000     0.0429904  
H257     H      0.222060000000     0.334410000000     0.024850000000     0.0395693  
H258     H      0.221560000000     0.362850000000     0.972440000000     0.0672184  
H259     H      0.223640000000     0.337960000000     0.089390000000     0.0439035  
H260     H      0.149870000000     0.298650000000     0.980000000000     0.120586   
H261     H      0.183820000000     0.370550000000     0.133930000000     0.0568473  
H262     H      0.195390000000     0.308630000000     0.141370000000     0.0579498  
H263     H      0.152370000000     0.332380000000     0.024600000000     0.0435305  
H264     H      0.192040000000     0.309280000000     0.205100000000     0.0295701  
H265     H      0.099970000000     0.263290000000     0.278860000000     0.0260402  
H266     H      0.909000000000     0.232190000000     0.172780000000     0.019399   
H267     H      0.036170000000     0.238310000000     0.201510000000     0.0412592  
H268     H      0.972710000000     0.255860000000     0.247770000000     0.0379871  
H269     H      0.950500000000     0.253720000000     0.195080000000     0.062289   
H270     H      0.013930000000     0.277180000000     0.272730000000     0.0393336  
H271     H      0.953400000000     0.186700000000     0.189420000000     0.118766   
H272     H      0.058180000000     0.240880000000     0.256840000000     0.0573461  
H273     H      0.055770000000     0.308280000000     0.255060000000     0.0552321  
H274     H      0.995020000000     0.217170000000     0.176180000000     0.0431362  
H275     H      0.097420000000     0.330120000000     0.277340000000     0.0243196  
H276     H      0.432350000000     0.438250000000     0.442690000000     0.0251166  
H277     H      0.241950000000     0.406970000000     0.334240000000     0.0208473  
H278     H      0.369890000000     0.415690000000     0.365580000000     0.0423391  
H279     H      0.306500000000     0.433820000000     0.410420000000     0.0384402  
H280     H      0.283690000000     0.430000000000     0.355830000000     0.0652886  
H281     H      0.347680000000     0.455180000000     0.435740000000     0.0433962  
H282     H      0.287470000000     0.363400000000     0.358140000000     0.117918   
H283     H      0.390930000000     0.417250000000     0.419730000000     0.0562346  
H284     H      0.390000000000     0.485430000000     0.422230000000     0.0578373  
H285     H      0.328750000000     0.394310000000     0.340430000000     0.0418118  
H286     H      0.431360000000     0.505850000000     0.445920000000     0.0305937  
H287     H      0.517420000000     0.035410000000     0.864620000000     0.0283973  
H288     H      0.483470000000     0.967340000000     0.581970000000     0.0256776  
H289     H      0.547310000000     0.041430000000     0.753250000000     0.0435004  
H290     H      0.506100000000     0.960420000000     0.693680000000     0.0387396  
H291     H      0.487250000000     0.967270000000     0.645110000000     0.0663664  
H292     H      0.505930000000     0.962130000000     0.757540000000     0.0425776  
H293     H      0.560050000000     0.030260000000     0.637810000000     0.118569   
H294     H      0.521530000000     0.035350000000     0.801380000000     0.0566841  
H295     H      0.529050000000     0.970860000000     0.809550000000     0.0579559  
H296     H      0.545820000000     0.039760000000     0.689360000000     0.0423219  
H297     H      0.523740000000     0.970830000000     0.872650000000     0.0278992  
H298     H      0.530510000000     0.039440000000     0.363810000000     0.0254584  
H299     H      0.484650000000     0.025980000000     0.074420000000     0.0231516  
H300     H      0.523900000000     0.004160000000     0.255740000000     0.0429396  
H301     H      0.452650000000     0.998740000000     0.191080000000     0.0380538  
H302     H      0.481590000000     0.027670000000     0.137970000000     0.0657711  
H303     H      0.454500000000     0.002720000000     0.255610000000     0.0423753  
H304     H      0.490690000000     0.964450000000     0.147900000000     0.120022   
H305     H      0.526740000000     0.038390000000     0.300130000000     0.0561306  
H306     H      0.455090000000     0.974040000000     0.308330000000     0.0583538  
H307     H      0.521810000000     0.999690000000     0.191640000000     0.0429657  
H308     H      0.459510000000     0.975170000000     0.372060000000     0.0301282  
H309     H      0.764920000000     0.160170000000     0.114250000000     0.0245055  
H310     H      0.576160000000     0.000270000000     0.004290000000     0.0267847  
H311     H      0.681630000000     0.110760000000     0.105600000000     0.0415124  
H312     H      0.660220000000     0.049450000000     0.010210000000     0.0387924  
H313     H      0.617560000000     0.020100000000     0.027170000000     0.0670654  
H314     H      0.701440000000     0.069390000000     0.035280000000     0.0418337  
H315     H      0.619730000000     0.089700000000     0.024350000000     0.117756   
H316     H      0.723430000000     0.140000000000     0.091490000000     0.0553261  
H317     H      0.723830000000     0.071550000000     0.087890000000     0.0565047  
H318     H      0.640530000000     0.091020000000     0.080180000000     0.0415245  
H319     H      0.765600000000     0.092430000000     0.109830000000     0.0291207  
H320     H      0.218370000000     0.841940000000     0.410270000000     0.026988   
H321     H      0.178880000000     0.874220000000     0.703640000000     0.0195788  
H322     H      0.181860000000     0.813870000000     0.522960000000     0.045102   
H323     H      0.206970000000     0.890100000000     0.591110000000     0.0369894  
H324     H      0.182840000000     0.877990000000     0.640600000000     0.0634736  
H325     H      0.206220000000     0.891220000000     0.526810000000     0.0435175  
H326     H      0.202240000000     0.821050000000     0.638850000000     0.121199   
H327     H      0.222220000000     0.844560000000     0.474050000000     0.0592765  
H328     H      0.163730000000     0.861360000000     0.479330000000     0.0580526  
H329     H      0.180770000000     0.811990000000     0.587010000000     0.0440772  
H330     H      0.159650000000     0.857880000000     0.415480000000     0.0291642  
H331     H      0.159790000000     0.859980000000     0.916380000000     0.0243219  
H332     H      0.128730000000     0.817080000000     0.207620000000     0.0234799  
H333     H      0.188030000000     0.853470000000     0.024610000000     0.0435304  
H334     H      0.121700000000     0.784080000000     0.091210000000     0.0391805  
H335     H      0.123240000000     0.813880000000     0.144150000000     0.0661133  
H336     H      0.119040000000     0.785260000000     0.026660000000     0.0439727  
H337     H      0.194530000000     0.820760000000     0.132640000000     0.120256   
H338     H      0.157350000000     0.857030000000     0.980120000000     0.0557797  
H339     H      0.146980000000     0.783990000000     0.973850000000     0.0615551  
H340     H      0.190900000000     0.852040000000     0.088720000000     0.0427189  
H341     H      0.149980000000     0.787580000000     0.910000000000     0.0362755  
H342     H      0.431600000000     0.928240000000     0.946460000000     0.029756   
H343     H      0.243330000000     0.903340000000     0.838300000000     0.0197695  
H344     H      0.367980000000     0.904690000000     0.869550000000     0.0438109  
H345     H      0.307240000000     0.926810000000     0.913650000000     0.0365948  
H346     H      0.284980000000     0.924210000000     0.860290000000     0.0634326  
H347     H      0.348570000000     0.947070000000     0.938340000000     0.0411589  
H348     H      0.284870000000     0.855560000000     0.859910000000     0.121205   
H349     H      0.389750000000     0.907160000000     0.924610000000     0.0587802  
H350     H      0.390810000000     0.976300000000     0.920850000000     0.0549471  
H351     H      0.326720000000     0.884540000000     0.844640000000     0.0440801  
H352     H      0.432470000000     0.996790000000     0.943090000000     0.0254826  
H353     H      0.863930000000     0.706820000000     0.028420000000     0.0234027  
H354     H      0.826360000000     0.637530000000     0.746620000000     0.020255   
H355     H      0.838880000000     0.712620000000     0.917570000000     0.0401954  
H356     H      0.797980000000     0.631320000000     0.858790000000     0.0354015  
H357     H      0.823150000000     0.637800000000     0.809790000000     0.0628508  
H358     H      0.800720000000     0.633310000000     0.922570000000     0.0391119  
H359     H      0.813430000000     0.700960000000     0.802580000000     0.116039   
H360     H      0.859050000000     0.706560000000     0.965260000000     0.053862   
H361     H      0.787080000000     0.642410000000     0.974890000000     0.053345   
H362     H      0.837800000000     0.710630000000     0.853680000000     0.0399141  
H363     H      0.793070000000     0.642580000000     0.037820000000     0.023054   
H364     H      0.887720000000     0.699240000000     0.239650000000     0.0232111  
H365     H      0.849480000000     0.708370000000     0.528420000000     0.0201791  
H366     H      0.891960000000     0.672200000000     0.356580000000     0.0412889  
H367     H      0.823570000000     0.673970000000     0.419320000000     0.0373875  
H368     H      0.852880000000     0.707980000000     0.464930000000     0.064344   
H369     H      0.822290000000     0.670180000000     0.355150000000     0.0411665  
H370     H      0.864430000000     0.646130000000     0.472710000000     0.117522   
H371     H      0.891650000000     0.700590000000     0.303500000000     0.0546699  
H372     H      0.819960000000     0.636240000000     0.311100000000     0.0556804  
H373     H      0.893040000000     0.675560000000     0.421160000000     0.0401915  
H374     H      0.816670000000     0.634980000000     0.247390000000     0.0236726  
H375     H      0.766550000000     0.671420000000     0.605990000000     0.0293556  
H376     H      0.576350000000     0.509900000000     0.501630000000     0.0197082  
H377     H      0.702510000000     0.630840000000     0.531280000000     0.0421069  
H378     H      0.640760000000     0.549190000000     0.577560000000     0.0371551  
H379     H      0.618180000000     0.529760000000     0.522970000000     0.0634986  
H380     H      0.682210000000     0.569690000000     0.601890000000     0.0410511  
H381     H      0.619300000000     0.598860000000     0.525510000000     0.120033   
H382     H      0.724830000000     0.650830000000     0.584080000000     0.0571333  
H383     H      0.724130000000     0.581830000000     0.587270000000     0.0555626  
H384     H      0.661030000000     0.610420000000     0.507220000000     0.0418093  
H385     H      0.765700000000     0.602910000000     0.609980000000     0.0280904  
H386     H      0.910150000000     0.674950000000     0.669500000000     0.0296291  
H387     H      0.099550000000     0.833970000000     0.778880000000     0.0195536  
H388     H      0.993920000000     0.724410000000     0.674400000000     0.0448411  
H389     H      0.015840000000     0.786720000000     0.768460000000     0.0353187  
H390     H      0.058440000000     0.815080000000     0.755060000000     0.0640472  
H391     H      0.974780000000     0.767200000000     0.742780000000     0.042702   
H392     H      0.055670000000     0.745150000000     0.753930000000     0.120638   
H393     H      0.951700000000     0.695380000000     0.692060000000     0.056743   
H394     H      0.953070000000     0.764640000000     0.687430000000     0.0549598  
H395     H      0.034990000000     0.744020000000     0.699810000000     0.0417564  
H396     H      0.911280000000     0.743600000000     0.665220000000     0.0280653  
N1       N      0.698970000000     0.903190000000     0.775370000000    -0.256419   
N2       N      0.799840000000     0.099270000000     0.668410000000    -0.206541   
N3       N      0.872090000000     0.237830000000     0.613570000000    -0.256295   
N4       N      0.973330000000     0.433210000000     0.504180000000    -0.204248   
N5       N      0.041530000000     0.571410000000     0.447230000000    -0.255184   
N6       N      0.140070000000     0.765940000000     0.334800000000    -0.206964   
N7       N      0.534150000000     0.570610000000     0.944950000000    -0.256183   
N8       N      0.631190000000     0.764750000000     0.830990000000    -0.20658    
N9       N      0.213060000000     0.904540000000     0.280390000000    -0.25575    
N10      N      0.311790000000     0.099940000000     0.171280000000    -0.207901   
N11      N      0.467080000000     0.432260000000     0.001430000000    -0.25584    
N12      N      0.375530000000     0.237970000000     0.114620000000    -0.207884   
N13      N      0.675670000000     0.825360000000     0.404350000000    -0.25537    
N14      N      0.661330000000     0.818900000000     0.702490000000    -0.207093   
N15      N      0.669010000000     0.849070000000     0.903520000000    -0.256665   
N16      N      0.669720000000     0.848230000000     0.202920000000    -0.206483   
N17      N      0.707250000000     0.801490000000     0.276440000000    -0.256285   
N18      N      0.806200000000     0.705490000000     0.165400000000    -0.208273   
N19      N      0.638440000000     0.871570000000     0.330510000000    -0.255891   
N20      N      0.542070000000     0.969300000000     0.444470000000    -0.206905   
N21      N      0.010600000000     0.517970000000     0.576150000000    -0.254994   
N22      N      0.004310000000     0.514710000000     0.875600000000    -0.205832   
N23      N      0.003710000000     0.486310000000     0.375640000000    -0.255398   
N24      N      0.008390000000     0.488630000000     0.076200000000    -0.205838   
N25      N      0.973770000000     0.538440000000     0.003510000000    -0.255837   
N26      N      0.875510000000     0.636120000000     0.111150000000    -0.208265   
N27      N      0.344510000000     0.158030000000     0.743430000000    -0.256481   
N28      N      0.339780000000     0.153510000000     0.042870000000    -0.207929   
N29      N      0.342420000000     0.185750000000     0.542780000000    -0.256346   
N30      N      0.347710000000     0.184900000000     0.243460000000    -0.20799    
N31      N      0.471800000000     0.037250000000     0.501350000000    -0.25654    
N32      N      0.376390000000     0.135910000000     0.615350000000    -0.206472   
N33      N      0.135820000000     0.367970000000     0.833980000000    -0.255617   
N34      N      0.039010000000     0.465240000000     0.948000000000    -0.207711   
N35      N      0.310150000000     0.208170000000     0.670630000000    -0.255584   
N36      N      0.208500000000     0.301950000000     0.779750000000    -0.206379   
N37      N      0.489020000000     0.497190000000     0.574400000000    -0.256548   
N38      N      0.490320000000     0.486670000000     0.872690000000    -0.206318   
N39      N      0.511750000000     0.517420000000     0.073680000000    -0.256011   
N40      N      0.519250000000     0.519030000000     0.373290000000    -0.207231   
N41      N      0.845980000000     0.183090000000     0.741980000000    -0.256494   
N42      N      0.852050000000     0.174850000000     0.040180000000    -0.207256   
N43      N      0.823240000000     0.149960000000     0.241270000000    -0.256664   
N44      N      0.825620000000     0.153140000000     0.540670000000    -0.207092   
N45      N      0.162620000000     0.340020000000     0.705830000000    -0.256491   
N46      N      0.156600000000     0.330440000000     0.407360000000    -0.207576   
N47      N      0.181500000000     0.329920000000     0.907610000000    -0.25679    
N48      N      0.185840000000     0.339970000000     0.206060000000    -0.207403   
N49      N      0.907090000000     0.197170000000     0.168120000000    -0.255708   
N50      N      0.101910000000     0.298410000000     0.279470000000    -0.207928   
N51      N      0.240500000000     0.372050000000     0.333780000000    -0.256706   
N52      N      0.435080000000     0.473680000000     0.445660000000    -0.206907   
N53      N      0.518840000000     0.999250000000     0.573390000000    -0.256413   
N54      N      0.519860000000     0.002910000000     0.873310000000    -0.207164   
N55      N      0.489700000000     0.994540000000     0.074420000000    -0.25647    
N56      N      0.495510000000     0.007110000000     0.372620000000    -0.207183   
N57      N      0.573720000000     0.033190000000     0.001610000000    -0.255606   
N58      N      0.768480000000     0.127890000000     0.113400000000    -0.207083   
N59      N      0.186810000000     0.844750000000     0.707590000000    -0.256339   
N60      N      0.188470000000     0.849320000000     0.408190000000    -0.207212   
N61      N      0.164730000000     0.820990000000     0.206820000000    -0.256266   
N62      N      0.155580000000     0.824210000000     0.908490000000    -0.206148   
N63      N      0.239960000000     0.867580000000     0.836290000000    -0.255822   
N64      N      0.435250000000     0.964100000000     0.946140000000    -0.206937   
N65      N      0.822900000000     0.669510000000     0.738030000000    -0.257358   
N66      N      0.829060000000     0.674510000000     0.037780000000    -0.208369   
N67      N      0.854160000000     0.677130000000     0.537290000000    -0.257379   
N68      N      0.851730000000     0.667300000000     0.238810000000    -0.208381   
N69      N      0.573530000000     0.542640000000     0.501290000000    -0.255979   
N70      N      0.769350000000     0.638760000000     0.609360000000    -0.206387   
N71      N      0.101720000000     0.800880000000     0.779330000000    -0.25655    
N72      N      0.907510000000     0.707690000000     0.665940000000    -0.206156   
O1       O      0.846820000000     0.657780000000     0.591170000000    -0.517859   
O2       O      0.829610000000     0.653140000000     0.687820000000    -0.562534   
O3       O      0.804380000000     0.638570000000     0.626750000000    -0.552127   
O4       O      0.871830000000     0.672190000000     0.652100000000    -0.550985   
O5       O      0.872520000000     0.707960000000     0.648430000000    -0.551412   
O6       O      0.805020000000     0.674310000000     0.623230000000    -0.551027   
O7       O      0.830170000000     0.688800000000     0.684100000000    -0.51789    
O8       O      0.847210000000     0.693360000000     0.587420000000    -0.562753   
O9       O      0.161690000000     0.810780000000     0.855080000000    -0.546636   
O10      O      0.179740000000     0.822170000000     0.758510000000    -0.509152   
O11      O      0.204280000000     0.832670000000     0.819890000000    -0.511048   
O12      O      0.137050000000     0.800200000000     0.793690000000    -0.515243   
O13      O      0.137100000000     0.835610000000     0.796940000000    -0.560508   
O14      O      0.204780000000     0.868350000000     0.821290000000    -0.55894    
O15      O      0.179070000000     0.857270000000     0.760620000000    -0.560779   
O16      O      0.162770000000     0.846760000000     0.857680000000    -0.55622    
O17      O      0.512630000000     0.983340000000     0.926830000000    -0.556848   
O18      O      0.496030000000     0.978300000000     0.023710000000    -0.516434   
O19      O      0.470410000000     0.963910000000     0.962920000000    -0.551317   
O20      O      0.538040000000     0.997660000000     0.987480000000    -0.554553   
O21      O      0.538500000000     0.033290000000     0.984560000000    -0.515117   
O22      O      0.470940000000     0.999620000000     0.959950000000    -0.557335   
O23      O      0.496300000000     0.013840000000     0.020670000000    -0.556059   
O24      O      0.512980000000     0.018950000000     0.923690000000    -0.551552   
O25      O      0.179980000000     0.320670000000     0.259580000000    -0.552575   
O26      O      0.163590000000     0.314900000000     0.356610000000    -0.553271   
O27      O      0.137860000000     0.299780000000     0.295960000000    -0.556565   
O28      O      0.205480000000     0.335700000000     0.320040000000    -0.516848   
O29      O      0.204450000000     0.370590000000     0.317340000000    -0.55906    
O30      O      0.136770000000     0.334680000000     0.293390000000    -0.556385   
O31      O      0.162360000000     0.349720000000     0.353840000000    -0.55612    
O32      O      0.178660000000     0.355450000000     0.256740000000    -0.555809   
O33      O      0.830590000000     0.138650000000     0.186890000000    -0.513294   
O34      O      0.845880000000     0.151410000000     0.089780000000    -0.554076   
O35      O      0.872160000000     0.162080000000     0.149910000000    -0.509891   
O36      O      0.804280000000     0.127980000000     0.126830000000    -0.553764   
O37      O      0.803530000000     0.163020000000     0.130550000000    -0.556113   
O38      O      0.871030000000     0.196790000000     0.155500000000    -0.560306   
O39      O      0.845760000000     0.186720000000     0.094710000000    -0.554967   
O40      O      0.828760000000     0.173050000000     0.191380000000    -0.559799   
O41      O      0.495970000000     0.484720000000     0.520740000000    -0.560433   
O42      O      0.512730000000     0.496330000000     0.423830000000    -0.555935   
O43      O      0.538230000000     0.507430000000     0.484710000000    -0.55989    
O44      O      0.470680000000     0.473720000000     0.459960000000    -0.556286   
O45      O      0.470110000000     0.508870000000     0.462930000000    -0.552231   
O46      O      0.537740000000     0.542580000000     0.487500000000    -0.510554   
O47      O      0.512310000000     0.531560000000     0.426840000000    -0.552296   
O48      O      0.495700000000     0.519990000000     0.523760000000    -0.512663   
O49      O      0.184400000000     0.355880000000     0.757280000000    -0.516369   
O50      O      0.194620000000     0.349920000000     0.854470000000    -0.56204    
O51      O      0.207260000000     0.336870000000     0.794060000000    -0.550422   
O52      O      0.171690000000     0.369040000000     0.817880000000    -0.556949   
O53      O      0.137020000000     0.332980000000     0.819360000000    -0.511738   
O54      O      0.172540000000     0.300770000000     0.795520000000    -0.553179   
O55      O      0.159840000000     0.313950000000     0.856110000000    -0.513467   
O56      O      0.149620000000     0.319920000000     0.758930000000    -0.558433   
O57      O      0.362560000000     0.181770000000     0.694210000000    -0.513475   
O58      O      0.360610000000     0.196240000000     0.597500000000    -0.55679    
O59      O      0.345440000000     0.206860000000     0.658110000000    -0.512452   
O60      O      0.377570000000     0.171360000000     0.633660000000    -0.552149   
O61      O      0.341240000000     0.137200000000     0.628220000000    -0.55271    
O62      O      0.309170000000     0.172730000000     0.652660000000    -0.556725   
O63      O      0.324160000000     0.162280000000     0.592130000000    -0.517116   
O64      O      0.326120000000     0.147820000000     0.688820000000    -0.561745   
O65      O      0.023340000000     0.525560000000     0.929710000000    -0.551261   
O66      O      0.026100000000     0.511930000000     0.026610000000    -0.55226    
O67      O      0.040460000000     0.500870000000     0.966000000000    -0.558456   
O68      O      0.008810000000     0.536820000000     0.990390000000    -0.511476   
O69      O      0.972420000000     0.502710000000     0.986070000000    -0.560457   
O70      O      0.004020000000     0.466770000000     0.961180000000    -0.551553   
O71      O      0.989580000000     0.477900000000     0.021980000000    -0.56033    
O72      O      0.986660000000     0.491720000000     0.925350000000    -0.559668   
O73      O      0.689000000000     0.859880000000     0.256700000000    -0.557328   
O74      O      0.692520000000     0.848110000000     0.353940000000    -0.516485   
O75      O      0.707490000000     0.836740000000     0.293850000000    -0.557809   
O76      O      0.673960000000     0.871180000000     0.316720000000    -0.554737   
O77      O      0.638250000000     0.836190000000     0.313880000000    -0.517135   
O78      O      0.671660000000     0.802010000000     0.289360000000    -0.517331   
O79      O      0.657110000000     0.812880000000     0.350060000000    -0.550037   
O80      O      0.652780000000     0.825410000000     0.253140000000    -0.546779   
O81      O      0.864330000000     0.686340000000     0.184930000000    -0.555975   
O82      O      0.852350000000     0.690780000000     0.087830000000    -0.555732   
O83      O      0.841400000000     0.705530000000     0.148470000000    -0.556336   
O84      O      0.875290000000     0.671710000000     0.124450000000    -0.557276   
O85      O      0.840210000000     0.636020000000     0.127770000000    -0.556448   
O86      O      0.806320000000     0.669850000000     0.151930000000    -0.557701   
O87      O      0.817180000000     0.655200000000     0.091500000000    -0.558727   
O88      O      0.829170000000     0.650730000000     0.188370000000    -0.55826    
O89      O      0.530670000000     0.018780000000     0.519640000000    -0.517326   
O90      O      0.518300000000     0.023560000000     0.422950000000    -0.557443   
O91      O      0.507190000000     0.037740000000     0.484010000000    -0.557853   
O92      O      0.541640000000     0.004660000000     0.458750000000    -0.551158   
O93      O      0.506760000000     0.968780000000     0.462060000000    -0.55624    
O94      O      0.472380000000     0.001880000000     0.487220000000    -0.51783    
O95      O      0.483340000000     0.987760000000     0.426340000000    -0.551179   
O96      O      0.495760000000     0.983020000000     0.523120000000    -0.556686   
O97      O      0.327680000000     0.176200000000     0.190130000000    -0.556409   
O98      O      0.323020000000     0.159120000000     0.093410000000    -0.556444   
O99      O      0.309970000000     0.134150000000     0.154420000000    -0.557703   
O100     O      0.340910000000     0.201500000000     0.129000000000    -0.555764   
O101     O      0.377500000000     0.203930000000     0.132070000000    -0.556267   
O102     O      0.346520000000     0.136490000000     0.157360000000    -0.554116   
O103     O      0.359790000000     0.161910000000     0.096250000000    -0.55465    
O104     O      0.364390000000     0.178890000000     0.193100000000    -0.555096   
O105     O      0.477160000000     0.492840000000     0.926270000000    -0.546968   
O106     O      0.488570000000     0.509810000000     0.023180000000    -0.508065   
O107     O      0.499260000000     0.535130000000     0.962170000000    -0.513157   
O108     O      0.466500000000     0.467640000000     0.987140000000    -0.512745   
O109     O      0.501960000000     0.467750000000     0.984420000000    -0.559817   
O110     O      0.534740000000     0.535290000000     0.959390000000    -0.560835   
O111     O      0.524120000000     0.510130000000     0.020200000000    -0.561725   
O112     O      0.512770000000     0.493160000000     0.923430000000    -0.55622    
O113     O      0.152910000000     0.827890000000     0.261080000000    -0.55512    
O114     O      0.165940000000     0.844540000000     0.357970000000    -0.551005   
O115     O      0.177220000000     0.869950000000     0.297180000000    -0.515814   
O116     O      0.141550000000     0.802440000000     0.321810000000    -0.556449   
O117     O      0.175770000000     0.800240000000     0.317160000000    -0.552159   
O118     O      0.211660000000     0.868110000000     0.294170000000    -0.55427    
O119     O      0.199840000000     0.841690000000     0.354220000000    -0.557576   
O120     O      0.187600000000     0.826590000000     0.257030000000    -0.516716   
O121     O      0.987140000000     0.492860000000     0.425710000000    -0.522498   
O122     O      0.991520000000     0.510320000000     0.522150000000    -0.565416   
O123     O      0.006020000000     0.535470000000     0.461000000000    -0.55221    
O124     O      0.972860000000     0.468060000000     0.486770000000    -0.547859   
O125     O      0.008780000000     0.469090000000     0.490430000000    -0.548307   
O126     O      0.041890000000     0.536540000000     0.465190000000    -0.511291   
O127     O      0.027470000000     0.511510000000     0.526180000000    -0.513708   
O128     O      0.023300000000     0.494460000000     0.429370000000    -0.557097   
O129     O      0.813430000000     0.161520000000     0.593490000000    -0.552857   
O130     O      0.823840000000     0.177030000000     0.690830000000    -0.512983   
O131     O      0.836350000000     0.203150000000     0.630480000000    -0.513679   
O132     O      0.800910000000     0.135370000000     0.653800000000    -0.550856   
O133     O      0.835740000000     0.134090000000     0.652840000000    -0.554906   
O134     O      0.870900000000     0.201530000000     0.627430000000    -0.559909   
O135     O      0.858960000000     0.176440000000     0.688520000000    -0.559642   
O136     O      0.847620000000     0.159070000000     0.591750000000    -0.55544    
O137     O      0.644970000000     0.825460000000     0.752750000000    -0.552837   
O138     O      0.649160000000     0.841150000000     0.849960000000    -0.51283    
O139     O      0.663600000000     0.867220000000     0.789580000000    -0.513638   
O140     O      0.630560000000     0.799460000000     0.813180000000    -0.550239   
O141     O      0.666560000000     0.800720000000     0.817460000000    -0.555201   
O142     O      0.699450000000     0.868110000000     0.791740000000    -0.560642   
O143     O      0.685560000000     0.843230000000     0.852890000000    -0.560589   
O144     O      0.680480000000     0.825650000000     0.756320000000    -0.555696   
V1       V      0.838110000000     0.654000000000     0.639610000000     1.41443    
V2       V      0.838770000000     0.692530000000     0.635640000000     1.41403    
V3       V      0.170660000000     0.815040000000     0.806690000000     1.45574    
V4       V      0.170930000000     0.853400000000     0.809240000000     1.3896     
V5       V      0.504230000000     0.979380000000     0.975350000000     1.41935    
V6       V      0.504710000000     0.017840000000     0.972090000000     1.41269    
V7       V      0.171740000000     0.316370000000     0.308160000000     1.42021    
V8       V      0.170540000000     0.354000000000     0.305210000000     1.39693    
V9       V      0.838260000000     0.143650000000     0.138150000000     1.43695    
V10      V      0.837230000000     0.181280000000     0.143230000000     1.39158    
V11      V      0.504440000000     0.489170000000     0.472200000000     1.3937     
V12      V      0.503920000000     0.527130000000     0.475390000000     1.43776    
V13      V      0.190850000000     0.354370000000     0.805850000000     1.4163     
V14      V      0.153400000000     0.315470000000     0.807540000000     1.43429    
V15      V      0.362960000000     0.190420000000     0.646110000000     1.4311     
V16      V      0.323750000000     0.153650000000     0.640230000000     1.41255    
V17      V      0.026110000000     0.520160000000     0.978380000000     1.42518    
V18      V      0.986740000000     0.483410000000     0.973460000000     1.38816    
V19      V      0.692160000000     0.855350000000     0.305460000000     1.41439    
V20      V      0.653540000000     0.817740000000     0.301450000000     1.43474    
V21      V      0.859730000000     0.690010000000     0.136270000000     1.39691    
V22      V      0.821850000000     0.651530000000     0.140030000000     1.40295    
V23      V      0.525810000000     0.022620000000     0.471200000000     1.41554    
V24      V      0.488190000000     0.983930000000     0.474830000000     1.41824    
V25      V      0.323960000000     0.167680000000     0.141610000000     1.40261    
V26      V      0.363480000000     0.170370000000     0.144840000000     1.3939     
V27      V      0.481470000000     0.501350000000     0.974810000000     1.45507    
V28      V      0.519780000000     0.501550000000     0.971750000000     1.39056    
V29      V      0.158050000000     0.836290000000     0.309680000000     1.41202    
V30      V      0.195070000000     0.834080000000     0.305480000000     1.41878    
V31      V      0.987990000000     0.501670000000     0.473730000000     1.40372    
V32      V      0.026770000000     0.502920000000     0.477970000000     1.43677    
V33      V      0.817270000000     0.169330000000     0.642240000000     1.43919    
V34      V      0.854690000000     0.167740000000     0.640040000000     1.39069    
V35      V      0.645650000000     0.833280000000     0.801230000000     1.43857    
V36      V      0.684440000000     0.834460000000     0.804740000000     1.39311    


