data_structure

_audit_creation_method RASPA-1.0
_audit_creation_date 2023-6-5
_audit_author_name 'Poobodin Mano'

_cell_length_a    62.6794
_cell_length_b    62.7126
_cell_length_c    37.9902
_cell_angle_alpha 89.9546
_cell_angle_beta  90.0455
_cell_angle_gamma 119.924
_cell_volume      129424

_symmetry_cell_setting          triclinic
_symmetry_space_group_name_Hall 'P 1'
_symmetry_space_group_name_H-M  'P 1'
_symmetry_Int_Tables_number     1

_symmetry_equiv_pos_as_xyz 'x,y,z'

loop_
_atom_site_label
_atom_site_type_symbol
_atom_site_fract_x
_atom_site_fract_y
_atom_site_fract_z
_atom_site_charge
C1       C      0.818580000000     0.658030000000     0.697990000000     0.478495   
C2       C      0.841460000000     0.664240000000     0.568750000000     0.480177   
C3       C      0.874720000000     0.682610000000     0.652380000000     0.484305   
C4       C      0.784560000000     0.639520000000     0.616770000000     0.48433    
C5       C      0.177100000000     0.833130000000     0.727600000000     0.47781    
C6       C      0.153700000000     0.816700000000     0.856820000000     0.484405   
C7       C      0.211310000000     0.848720000000     0.808920000000     0.484231   
C8       C      0.120870000000     0.801800000000     0.774730000000     0.477459   
C9       C      0.508720000000     0.994970000000     0.902230000000     0.484524   
C10      C      0.487980000000     0.988720000000     0.032330000000     0.484844   
C11      C      0.452330000000     0.969540000000     0.950780000000     0.47899    
C12      C      0.543000000000     0.013630000000     0.983600000000     0.47636    
C13      C      0.149390000000     0.330300000000     0.361560000000     0.484018   
C14      C      0.176690000000     0.338440000000     0.233980000000     0.484395   
C15      C      0.207610000000     0.355680000000     0.317850000000     0.477895   
C16      C      0.118440000000     0.312940000000     0.277560000000     0.477666   
C17      C      0.827860000000     0.157530000000     0.194900000000     0.485037   
C18      C      0.834460000000     0.170520000000     0.062720000000     0.485524   
C19      C      0.784780000000     0.138360000000     0.121790000000     0.482997   
C20      C      0.877720000000     0.189700000000     0.135760000000     0.48268    
C21      C      0.486150000000     0.489680000000     0.535620000000     0.477897   
C22      C      0.505120000000     0.506500000000     0.405240000000     0.484008   
C23      C      0.449430000000     0.474400000000     0.457140000000     0.483883   
C24      C      0.541010000000     0.521300000000     0.484550000000     0.47783    
C25      C      0.169260000000     0.330770000000     0.863450000000     0.479645   
C26      C      0.154840000000     0.333630000000     0.732420000000     0.478979   
C27      C      0.185400000000     0.309820000000     0.784520000000     0.479397   
C28      C      0.138400000000     0.354630000000     0.810360000000     0.4846     
C29      C      0.325400000000     0.150830000000     0.695780000000     0.483624   
C30      C      0.322360000000     0.170890000000     0.566870000000     0.483028   
C31      C      0.302840000000     0.185370000000     0.647160000000     0.483882   
C32      C      0.344660000000     0.136570000000     0.614400000000     0.478438   
C33      C      0.991820000000     0.507740000000     0.903370000000     0.485963   
C34      C      0.999730000000     0.489620000000     0.031560000000     0.488466   
C35      C      0.017600000000     0.475760000000     0.948730000000     0.475963   
C36      C      0.973710000000     0.521870000000     0.985310000000     0.4834     
C37      C      0.651580000000     0.834080000000     0.234680000000     0.484602   
C38      C      0.659090000000     0.817210000000     0.363570000000     0.485124   
C39      C      0.678060000000     0.803210000000     0.281750000000     0.479176   
C40      C      0.632570000000     0.848250000000     0.315500000000     0.484956   
C41      C      0.817990000000     0.663390000000     0.068740000000     0.484131   
C42      C      0.832400000000     0.661840000000     0.199970000000     0.485017   
C43      C      0.801450000000     0.684100000000     0.145970000000     0.482879   
C44      C      0.849840000000     0.640530000000     0.121400000000     0.479229   
C45      C      0.478910000000     0.991260000000     0.400870000000     0.478657   
C46      C      0.495070000000     0.989940000000     0.531630000000     0.479773   
C47      C      0.463180000000     0.012680000000     0.478780000000     0.485038   
C48      C      0.510560000000     0.968350000000     0.452610000000     0.479729   
C49      C      0.321710000000     0.146810000000     0.066690000000     0.478156   
C50      C      0.327740000000     0.170060000000     0.195880000000     0.477247   
C51      C      0.305890000000     0.113920000000     0.151030000000     0.484509   
C52      C      0.343850000000     0.203160000000     0.112750000000     0.478519   
C53      C      0.479270000000     0.480160000000     0.906150000000     0.484195   
C54      C      0.497900000000     0.505660000000     0.034400000000     0.477735   
C55      C      0.512720000000     0.537950000000     0.950750000000     0.478859   
C56      C      0.465110000000     0.448860000000     0.990750000000     0.483289   
C57      C      0.173000000000     0.834430000000     0.356660000000     0.48459    
C58      C      0.154720000000     0.812190000000     0.227340000000     0.478254   
C59      C      0.139980000000     0.777560000000     0.308190000000     0.484015   
C60      C      0.186920000000     0.868120000000     0.275100000000     0.477909   
C61      C      0.992600000000     0.483710000000     0.402110000000     0.480621   
C62      C      0.994550000000     0.501050000000     0.532970000000     0.48187    
C63      C      0.970850000000     0.446380000000     0.480090000000     0.483713   
C64      C      0.016360000000     0.538080000000     0.453780000000     0.475772   
C65      C      0.818860000000     0.145680000000     0.563270000000     0.479554   
C66      C      0.832840000000     0.168670000000     0.692630000000     0.48046    
C67      C      0.848640000000     0.202320000000     0.610640000000     0.478524   
C68      C      0.802990000000     0.111860000000     0.644510000000     0.484443   
C69      C      0.658210000000     0.817230000000     0.734440000000     0.479205   
C70      C      0.662370000000     0.833990000000     0.865620000000     0.480594   
C71      C      0.637480000000     0.779610000000     0.812200000000     0.484939   
C72      C      0.683020000000     0.871400000000     0.786750000000     0.479264   
C73      C      0.754150000000     0.050160000000     0.672290000000    -0.14409    
C74      C      0.720470000000     0.908700000000     0.775700000000     0.0764222  
C75      C      0.682240000000     0.907270000000     0.768070000000     0.0766138  
C76      C      0.733060000000     0.932970000000     0.763570000000    -0.097255   
C77      C      0.753190000000     0.976890000000     0.714750000000    -0.0377051  
C78      C      0.764830000000     0.000150000000     0.699120000000    -0.0326448  
C79      C      0.732910000000     0.969710000000     0.737260000000    -0.00709914 
C80      C      0.694240000000     0.931450000000     0.755620000000    -0.097224   
C81      C      0.756380000000     0.016760000000     0.705420000000    -0.0167536  
C82      C      0.793890000000     0.055310000000     0.685640000000    -0.110625   
C83      C      0.736240000000     0.009730000000     0.728080000000    -0.0326562  
C84      C      0.804800000000     0.078280000000     0.669380000000     0.0823917  
C85      C      0.765490000000     0.072870000000     0.654490000000     0.186942   
C86      C      0.724700000000     0.986500000000     0.743930000000    -0.0378306  
C87      C      0.719950000000     0.944530000000     0.752720000000     0.0500959  
C88      C      0.768310000000     0.041210000000     0.687960000000     0.071198   
C89      C      0.921540000000     0.383000000000     0.499800000000    -0.14432    
C90      C      0.885990000000     0.239030000000     0.596810000000     0.0765699  
C91      C      0.847890000000     0.238170000000     0.591760000000     0.0766127  
C92      C      0.898560000000     0.263320000000     0.584790000000    -0.0970514  
C93      C      0.919220000000     0.308690000000     0.539030000000    -0.0376942  
C94      C      0.931220000000     0.332480000000     0.525090000000    -0.0325381  
C95      C      0.898500000000     0.300770000000     0.560920000000    -0.00700469 
C96      C      0.859840000000     0.262320000000     0.579190000000    -0.0972545  
C97      C      0.922610000000     0.348830000000     0.532310000000    -0.0170116  
C98      C      0.960620000000     0.388550000000     0.518210000000    -0.110669   
C99      C      0.901930000000     0.341030000000     0.554050000000    -0.0326114  
C100     C      0.972030000000     0.412220000000     0.504150000000     0.0822381  
C101     C      0.933520000000     0.406410000000     0.483940000000     0.186672   
C102     C      0.890110000000     0.317340000000     0.568410000000    -0.0379987  
C103     C      0.885510000000     0.275240000000     0.575340000000     0.0499518  
C104     C      0.935080000000     0.373910000000     0.516950000000     0.071361   
C105     C      0.090200000000     0.716510000000     0.336280000000    -0.14397    
C106     C      0.053920000000     0.575120000000     0.442320000000     0.0763134  
C107     C      0.015870000000     0.573970000000     0.434180000000     0.0733321  
C108     C      0.066700000000     0.599190000000     0.429590000000    -0.097261   
C109     C      0.087170000000     0.642300000000     0.379390000000    -0.0381178  
C110     C      0.099260000000     0.665440000000     0.363390000000    -0.0325961  
C111     C      0.067030000000     0.635770000000     0.401950000000    -0.00691846 
C112     C      0.028070000000     0.598010000000     0.421110000000    -0.0960252  
C113     C      0.091440000000     0.682580000000     0.369380000000    -0.0168921  
C114     C      0.129520000000     0.720370000000     0.348740000000    -0.110368   
C115     C      0.071400000000     0.676150000000     0.392030000000    -0.0325983  
C116     C      0.140910000000     0.743320000000     0.332350000000     0.081954   
C117     C      0.101980000000     0.739190000000     0.318440000000     0.187119   
C118     C      0.059370000000     0.653030000000     0.408190000000    -0.038165   
C119     C      0.053790000000     0.610820000000     0.418110000000     0.0493668  
C120     C      0.103920000000     0.706940000000     0.351630000000     0.0708926  
C121     C      0.588050000000     0.716880000000     0.834160000000    -0.144692   
C122     C      0.550440000000     0.573260000000     0.933880000000     0.0767009  
C123     C      0.513240000000     0.574390000000     0.931660000000     0.07653    
C124     C      0.563530000000     0.597270000000     0.920870000000    -0.0971023  
C125     C      0.584370000000     0.642100000000     0.873790000000    -0.0378675  
C126     C      0.596630000000     0.665620000000     0.858930000000    -0.0325418  
C127     C      0.564610000000     0.635350000000     0.897210000000    -0.0069754  
C128     C      0.525690000000     0.598270000000     0.918170000000    -0.0971892  
C129     C      0.589200000000     0.682820000000     0.866740000000    -0.0171835  
C130     C      0.627330000000     0.721620000000     0.849560000000    -0.110978   
C131     C      0.569550000000     0.676210000000     0.890130000000    -0.0326262  
C132     C      0.638730000000     0.745140000000     0.834920000000     0.0822318  
C133     C      0.599930000000     0.740060000000     0.817720000000     0.187157   
C134     C      0.557510000000     0.652820000000     0.905400000000    -0.0380843  
C135     C      0.551160000000     0.610070000000     0.912440000000     0.0498648  
C136     C      0.601720000000     0.707540000000     0.850250000000     0.0714817  
C137     C      0.297670000000     0.055640000000     0.188350000000    -0.144132   
C138     C      0.186270000000     0.904190000000     0.257440000000     0.0757764  
C139     C      0.224130000000     0.904320000000     0.258880000000     0.0759974  
C140     C      0.198070000000     0.928230000000     0.244570000000    -0.097397   
C141     C      0.228160000000     0.982970000000     0.234170000000    -0.0379918  
C142     C      0.239630000000     0.006790000000     0.220470000000    -0.0326991  
C143     C      0.236320000000     0.966480000000     0.224910000000    -0.00710157 
C144     C      0.236600000000     0.928560000000     0.246530000000    -0.0969655  
C145     C      0.259800000000     0.014890000000     0.197650000000    -0.017366   
C146     C      0.258760000000     0.050380000000     0.169690000000    -0.111105   
C147     C      0.268280000000     0.998690000000     0.188670000000    -0.0325565  
C148     C      0.270600000000     0.074940000000     0.159210000000     0.0819498  
C149     C      0.309090000000     0.080820000000     0.179820000000     0.18622    
C150     C      0.256530000000     0.974670000000     0.201910000000    -0.0378352  
C151     C      0.223560000000     0.940820000000     0.238890000000     0.0496153  
C152     C      0.272320000000     0.040460000000     0.184200000000     0.071473   
C153     C      0.450890000000     0.388280000000     0.025850000000    -0.144575   
C154     C      0.339680000000     0.236650000000     0.091140000000     0.0762204  
C155     C      0.379340000000     0.241220000000     0.098070000000     0.076814   
C156     C      0.350030000000     0.260440000000     0.077290000000    -0.0970667  
C157     C      0.378250000000     0.316070000000     0.066390000000    -0.0380662  
C158     C      0.390140000000     0.340200000000     0.053550000000    -0.0322812  
C159     C      0.387170000000     0.300050000000     0.058160000000    -0.00705405 
C160     C      0.390260000000     0.265040000000     0.084530000000    -0.0976424  
C161     C      0.411240000000     0.348840000000     0.032390000000    -0.0171132  
C162     C      0.413520000000     0.387380000000     0.009090000000    -0.110402   
C163     C      0.419690000000     0.332620000000     0.023290000000    -0.0326839  
C164     C      0.427300000000     0.412200000000     0.999930000000     0.0815818  
C165     C      0.464300000000     0.413570000000     0.018400000000     0.186322   
C166     C      0.407750000000     0.308500000000     0.035900000000    -0.0381837  
C167     C      0.375620000000     0.274880000000     0.073490000000     0.050049   
C168     C      0.425360000000     0.375050000000     0.021620000000     0.0710992  
C169     C      0.681890000000     0.822410000000     0.454440000000    -0.144875   
C170     C      0.636840000000     0.808660000000     0.679850000000     0.0765519  
C171     C      0.677920000000     0.816460000000     0.681290000000     0.0766574  
C172     C      0.636340000000     0.806560000000     0.643260000000    -0.0976633  
C173     C      0.644460000000     0.818460000000     0.566110000000    -0.0376781  
C174     C      0.644890000000     0.818370000000     0.529390000000    -0.032609   
C175     C      0.657690000000     0.809840000000     0.585760000000    -0.00719309 
C176     C      0.678230000000     0.814990000000     0.644630000000    -0.0973371  
C177     C      0.658950000000     0.810130000000     0.511430000000    -0.0174478  
C178     C      0.637700000000     0.798830000000     0.453400000000    -0.1117     
C179     C      0.672360000000     0.801690000000     0.530740000000    -0.0326989  
C180     C      0.638390000000     0.800150000000     0.416820000000     0.0836264  
C181     C      0.682230000000     0.823320000000     0.417430000000     0.187546   
C182     C      0.671560000000     0.801310000000     0.567530000000    -0.0380655  
C183     C      0.657350000000     0.810240000000     0.625000000000     0.0500294  
C184     C      0.659560000000     0.810450000000     0.472560000000     0.0720964  
C185     C      0.631750000000     0.823780000000     0.141980000000    -0.145648   
C186     C      0.679700000000     0.835120000000     0.921860000000     0.0770574  
C187     C      0.646000000000     0.842230000000     0.917060000000     0.0771229  
C188     C      0.679200000000     0.836590000000     0.958490000000    -0.098896   
C189     C      0.662630000000     0.862190000000     0.030850000000    -0.0386862  
C190     C      0.660810000000     0.862190000000     0.067540000000    -0.0327521  
C191     C      0.660140000000     0.841390000000     0.013290000000    -0.00796778 
C192     C      0.645410000000     0.844420000000     0.953560000000    -0.0987137  
C193     C      0.655860000000     0.841160000000     0.086950000000    -0.018211   
C194     C      0.673120000000     0.857650000000     0.146240000000    -0.11186    
C195     C      0.653140000000     0.820290000000     0.069340000000    -0.032387   
C196     C      0.671290000000     0.855860000000     0.182800000000     0.0820988  
C197     C      0.629710000000     0.823380000000     0.178850000000     0.186807   
C198     C      0.655550000000     0.820500000000     0.032790000000    -0.0384273  
C199     C      0.661830000000     0.841130000000     0.974590000000     0.0511524  
C200     C      0.653580000000     0.840860000000     0.125600000000     0.0722108  
C201     C      0.786400000000     0.732470000000     0.167430000000    -0.144708   
C202     C      0.677580000000     0.766100000000     0.266820000000     0.0766121  
C203     C      0.714880000000     0.804180000000     0.263450000000     0.0757981  
C204     C      0.689360000000     0.753690000000     0.254400000000    -0.0974182  
C205     C      0.714300000000     0.733920000000     0.207530000000    -0.0378714  
C206     C      0.726140000000     0.722170000000     0.192880000000    -0.0326864  
C207     C      0.726950000000     0.754050000000     0.230460000000    -0.00716008 
C208     C      0.727160000000     0.792400000000     0.250500000000    -0.0974431  
C209     C      0.750990000000     0.730480000000     0.200410000000    -0.017302   
C210     C      0.752980000000     0.692910000000     0.184120000000    -0.111257   
C211     C      0.763700000000     0.750530000000     0.223250000000    -0.0327621  
C212     C      0.765530000000     0.681960000000     0.169440000000     0.0811006  
C213     C      0.798130000000     0.721000000000     0.150980000000     0.186078   
C214     C      0.751780000000     0.762090000000     0.238320000000    -0.0380946  
C215     C      0.714390000000     0.766830000000     0.245530000000     0.0498563  
C216     C      0.763730000000     0.718450000000     0.184130000000     0.0712935  
C217     C      0.583060000000     0.861360000000     0.338630000000    -0.143525   
C218     C      0.548030000000     0.969210000000     0.438350000000     0.0766429  
C219     C      0.510220000000     0.931450000000     0.436950000000     0.0768385  
C220     C      0.560610000000     0.957460000000     0.426320000000    -0.0979623  
C221     C      0.581370000000     0.922000000000     0.418440000000    -0.0385479  
C222     C      0.593060000000     0.910140000000     0.403500000000    -0.0321858  
C223     C      0.560110000000     0.919930000000     0.402890000000    -0.00731058 
C224     C      0.522150000000     0.919250000000     0.424310000000    -0.0985226  
C225     C      0.583960000000     0.896320000000     0.372340000000    -0.0168225  
C226     C      0.622160000000     0.894910000000     0.356610000000    -0.10982    
C227     C      0.562800000000     0.894630000000     0.356670000000    -0.0320555  
C228     C      0.633620000000     0.882980000000     0.341480000000     0.0817791  
C229     C      0.595060000000     0.850380000000     0.321600000000     0.185776   
C230     C      0.550910000000     0.906110000000     0.371950000000    -0.0386329  
C231     C      0.547550000000     0.932330000000     0.418490000000     0.0506908  
C232     C      0.596530000000     0.883900000000     0.356060000000     0.0703368  
C233     C      0.968760000000     0.502410000000     0.812720000000    -0.14359    
C234     C      0.014720000000     0.509630000000     0.588650000000     0.0754785  
C235     C      0.974120000000     0.503100000000     0.584590000000     0.0775714  
C236     C      0.014620000000     0.512540000000     0.625100000000    -0.100189   
C237     C      0.010730000000     0.531880000000     0.698710000000    -0.0404678  
C238     C      0.009940000000     0.532920000000     0.735420000000    -0.0340311  
C239     C      0.992550000000     0.511450000000     0.680410000000    -0.00576196 
C240     C      0.973210000000     0.505340000000     0.621040000000    -0.0987078  
C241     C      0.991240000000     0.513280000000     0.754700000000    -0.0150025  
C242     C      0.012940000000     0.525310000000     0.813220000000    -0.111794   
C243     C      0.973070000000     0.492840000000     0.736070000000    -0.0320347  
C244     C      0.012420000000     0.524430000000     0.849880000000     0.081011   
C245     C      0.968620000000     0.501910000000     0.849750000000     0.187242   
C246     C      0.973590000000     0.492070000000     0.699350000000    -0.0384988  
C247     C      0.993570000000     0.510020000000     0.641660000000     0.052636   
C248     C      0.990980000000     0.513730000000     0.794000000000     0.0720396  
C249     C      0.986650000000     0.460230000000     0.119120000000    -0.140402   
C250     C      0.973990000000     0.478960000000     0.345820000000     0.0767428  
C251     C      0.011670000000     0.478930000000     0.350780000000     0.0751562  
C252     C      0.974580000000     0.477230000000     0.309240000000    -0.0980985  
C253     C      0.018800000000     0.490880000000     0.236950000000    -0.0387878  
C254     C      0.020290000000     0.491920000000     0.200250000000    -0.0359032  
C255     C      0.996050000000     0.476520000000     0.253880000000    -0.00620303 
C256     C      0.012800000000     0.477120000000     0.314250000000    -0.0998772  
C257     C      0.999060000000     0.478680000000     0.179520000000    -0.0111999  
C258     C      0.015660000000     0.503390000000     0.124260000000    -0.10846    
C259     C      0.976380000000     0.463920000000     0.196420000000    -0.0341296  
C260     C      0.016030000000     0.505340000000     0.087710000000     0.0815622  
C261     C      0.987910000000     0.462410000000     0.082200000000     0.187452   
C262     C      0.974890000000     0.462830000000     0.233150000000    -0.0373501  
C263     C      0.994310000000     0.476630000000     0.292930000000     0.0522555  
C264     C      0.000430000000     0.480790000000     0.140470000000     0.0651208  
C265     C      0.960870000000     0.570930000000     0.012640000000    -0.143481   
C266     C      0.850880000000     0.603550000000     0.111490000000     0.0765653  
C267     C      0.886990000000     0.642150000000     0.103160000000     0.0765136  
C268     C      0.863090000000     0.591330000000     0.100010000000    -0.0975937  
C269     C      0.887740000000     0.571560000000     0.052310000000    -0.0379945  
C270     C      0.899760000000     0.560020000000     0.037580000000    -0.0325986  
C271     C      0.900450000000     0.592130000000     0.074410000000    -0.00707437 
C272     C      0.899720000000     0.630510000000     0.091350000000    -0.09716    
C273     C      0.924820000000     0.568830000000     0.044410000000    -0.016796   
C274     C      0.926350000000     0.531280000000     0.026120000000    -0.110538   
C275     C      0.937560000000     0.589330000000     0.066560000000    -0.032502   
C276     C      0.938510000000     0.520300000000     0.010350000000     0.0816323  
C277     C      0.972380000000     0.559510000000     0.995340000000     0.186014   
C278     C      0.925490000000     0.600810000000     0.081480000000    -0.0379477  
C279     C      0.887700000000     0.604800000000     0.089140000000     0.0500506  
C280     C      0.937670000000     0.556850000000     0.027990000000     0.0707421  
C281     C      0.346060000000     0.153030000000     0.787390000000    -0.143984   
C282     C      0.299570000000     0.135820000000     0.012550000000     0.0767272  
C283     C      0.341340000000     0.145830000000     0.013480000000     0.0763162  
C284     C      0.298890000000     0.133450000000     0.975950000000    -0.0970962  
C285     C      0.306360000000     0.145860000000     0.898730000000    -0.0377528  
C286     C      0.307050000000     0.146410000000     0.861970000000    -0.032588   
C287     C      0.320370000000     0.137980000000     0.918060000000    -0.00694044 
C288     C      0.341440000000     0.144050000000     0.976810000000    -0.0967374  
C289     C      0.322070000000     0.139520000000     0.843590000000    -0.0169429  
C290     C      0.301900000000     0.130460000000     0.784490000000    -0.110598   
C291     C      0.336060000000     0.131610000000     0.862640000000    -0.0328395  
C292     C      0.303350000000     0.132820000000     0.747950000000     0.0827278  
C293     C      0.347170000000     0.154930000000     0.750430000000     0.186921   
C294     C      0.335080000000     0.130660000000     0.899440000000    -0.0380262  
C295     C      0.320150000000     0.138190000000     0.957380000000     0.0496117  
C296     C      0.323360000000     0.141010000000     0.804640000000     0.0711503  
C297     C      0.301750000000     0.167970000000     0.475200000000    -0.143102   
C298     C      0.349100000000     0.179990000000     0.250760000000     0.0753897  
C299     C      0.308040000000     0.172250000000     0.248220000000     0.0762312  
C300     C      0.349340000000     0.182520000000     0.287360000000    -0.0978682  
C301     C      0.345700000000     0.198960000000     0.363080000000    -0.0386352  
C302     C      0.344670000000     0.199000000000     0.399890000000    -0.0323844  
C303     C      0.327240000000     0.179390000000     0.343720000000    -0.00733982 
C304     C      0.307510000000     0.174210000000     0.284770000000    -0.0982772  
C305     C      0.325370000000     0.179210000000     0.418170000000    -0.0165032  
C306     C      0.345890000000     0.189200000000     0.477690000000    -0.109279   
C307     C      0.307060000000     0.159550000000     0.398510000000    -0.0321736  
C308     C      0.344510000000     0.187640000000     0.514340000000     0.0823502  
C309     C      0.300750000000     0.166840000000     0.512180000000     0.186416   
C310     C      0.307870000000     0.159750000000     0.361780000000    -0.0386113  
C311     C      0.328190000000     0.179080000000     0.304770000000     0.0501519  
C312     C      0.324360000000     0.178810000000     0.457480000000     0.0699585  
C313     C      0.413140000000     0.024860000000     0.502070000000    -0.143962   
C314     C      0.381090000000     0.134990000000     0.601930000000     0.0758334  
C315     C      0.341980000000     0.099460000000     0.593720000000     0.0766325  
C316     C      0.392750000000     0.122520000000     0.589280000000    -0.0980616  
C317     C      0.412070000000     0.087030000000     0.578160000000    -0.038324   
C318     C      0.423630000000     0.075070000000     0.563250000000    -0.0322882  
C319     C      0.390720000000     0.084960000000     0.562800000000    -0.00716945 
C320     C      0.353040000000     0.086490000000     0.580750000000    -0.0979287  
C321     C      0.414170000000     0.060880000000     0.532540000000    -0.0169234  
C322     C      0.452340000000     0.060440000000     0.514300000000    -0.110636   
C323     C      0.392780000000     0.058800000000     0.517250000000    -0.0321173  
C324     C      0.463870000000     0.048430000000     0.499760000000     0.0825816  
C325     C      0.425100000000     0.013460000000     0.486120000000     0.187331   
C326     C      0.381150000000     0.070660000000     0.532260000000    -0.0383019  
C327     C      0.378700000000     0.098080000000     0.578070000000     0.0503211  
C328     C      0.426700000000     0.048470000000     0.516400000000     0.0711799  
C329     C      0.124220000000     0.403600000000     0.831980000000    -0.144623   
C330     C      0.016390000000     0.438510000000     0.932310000000     0.0729732  
C331     C      0.054090000000     0.476260000000     0.929960000000     0.0758719  
C332     C      0.027880000000     0.425930000000     0.919390000000    -0.0963147  
C333     C      0.052560000000     0.406000000000     0.872150000000    -0.0380141  
C334     C      0.064200000000     0.394120000000     0.857280000000    -0.0326565  
C335     C      0.065310000000     0.425890000000     0.895450000000    -0.00704387 
C336     C      0.066080000000     0.464310000000     0.916510000000    -0.0970321  
C337     C      0.088970000000     0.402050000000     0.864920000000    -0.0172678  
C338     C      0.090400000000     0.364220000000     0.848470000000    -0.111034   
C339     C      0.101790000000     0.421880000000     0.888080000000    -0.0327314  
C340     C      0.102710000000     0.353020000000     0.833810000000     0.082227   
C341     C      0.135690000000     0.391870000000     0.815500000000     0.18689    
C342     C      0.090050000000     0.433550000000     0.903390000000    -0.038152   
C343     C      0.052980000000     0.438820000000     0.910830000000     0.0491853  
C344     C      0.101470000000     0.389790000000     0.848570000000     0.0715013  
C345     C      0.255170000000     0.201170000000     0.669960000000    -0.143611   
C346     C      0.222770000000     0.310510000000     0.770140000000     0.0768043  
C347     C      0.184900000000     0.272800000000     0.769150000000     0.0769887  
C348     C      0.235250000000     0.298690000000     0.758020000000    -0.0980396  
C349     C      0.255550000000     0.262700000000     0.749750000000    -0.038456   
C350     C      0.266860000000     0.250520000000     0.734600000000    -0.0321211  
C351     C      0.234450000000     0.261090000000     0.734310000000    -0.00734358 
C352     C      0.196720000000     0.260530000000     0.756400000000    -0.0985648  
C353     C      0.257530000000     0.236860000000     0.703360000000    -0.0166887  
C354     C      0.294880000000     0.233770000000     0.687730000000    -0.109577   
C355     C      0.236670000000     0.235810000000     0.687670000000    -0.0320746  
C356     C      0.305530000000     0.221010000000     0.672710000000     0.0815785  
C357     C      0.266370000000     0.189370000000     0.653030000000     0.185901   
C358     C      0.225150000000     0.247580000000     0.703160000000    -0.0384601  
C359     C      0.222090000000     0.273550000000     0.750290000000     0.0508489  
C360     C      0.269350000000     0.223670000000     0.687190000000     0.0704288  
C361     C      0.484010000000     0.461970000000     0.815560000000    -0.143109   
C362     C      0.476980000000     0.500810000000     0.591220000000     0.0759411  
C363     C      0.484060000000     0.467100000000     0.587230000000     0.0763833  
C364     C      0.473950000000     0.497700000000     0.627650000000    -0.0980712  
C365     C      0.454910000000     0.474950000000     0.701390000000    -0.0386562  
C366     C      0.453880000000     0.473190000000     0.738120000000    -0.0321997  
C367     C      0.475210000000     0.476830000000     0.683080000000    -0.00729114 
C368     C      0.481680000000     0.463840000000     0.623680000000    -0.0981226  
C369     C      0.473390000000     0.473810000000     0.757450000000    -0.0164952  
C370     C      0.461670000000     0.483850000000     0.815970000000    -0.10947    
C371     C      0.493690000000     0.475680000000     0.738820000000    -0.0320387  
C372     C      0.462610000000     0.484260000000     0.852650000000     0.0826531  
C373     C      0.484560000000     0.462380000000     0.852600000000     0.187387   
C374     C      0.494460000000     0.476930000000     0.702080000000    -0.0384535  
C375     C      0.476700000000     0.479300000000     0.644280000000     0.0503907  
C376     C      0.472960000000     0.473160000000     0.796780000000     0.0701731  
C377     C      0.520950000000     0.502380000000     0.312890000000    -0.144273   
C378     C      0.486870000000     0.516390000000     0.088830000000     0.0764866  
C379     C      0.519670000000     0.507890000000     0.086960000000     0.0753044  
C380     C      0.489120000000     0.519150000000     0.125360000000    -0.0970182  
C381     C      0.486120000000     0.507860000000     0.202860000000    -0.0377469  
C382     C      0.487010000000     0.507720000000     0.239600000000    -0.0326788  
C383     C      0.507690000000     0.516060000000     0.182700000000    -0.00710131 
C384     C      0.522110000000     0.510040000000     0.123540000000    -0.097014   
C385     C      0.509380000000     0.515320000000     0.257100000000    -0.0171226  
C386     C      0.499740000000     0.525340000000     0.316460000000    -0.110908   
C387     C      0.530960000000     0.523550000000     0.237250000000    -0.0329151  
C388     C      0.499770000000     0.523590000000     0.353030000000     0.0830433  
C389     C      0.521070000000     0.501060000000     0.349870000000     0.18686    
C390     C      0.530170000000     0.524130000000     0.200480000000    -0.0380525  
C391     C      0.506500000000     0.515380000000     0.143420000000     0.0494413  
C392     C      0.510030000000     0.514330000000     0.296010000000     0.0713717  
C393     C      0.826450000000     0.188210000000     0.973120000000    -0.145228   
C394     C      0.854120000000     0.172390000000     0.746260000000     0.0769012  
C395     C      0.820300000000     0.179390000000     0.745650000000     0.0774527  
C396     C      0.856100000000     0.175320000000     0.782770000000    -0.0972332  
C397     C      0.862360000000     0.190830000000     0.859290000000    -0.0380216  
C398     C      0.862360000000     0.190550000000     0.896120000000    -0.0327283  
C399     C      0.840100000000     0.181380000000     0.840450000000    -0.00705677 
C400     C      0.822050000000     0.182900000000     0.782010000000    -0.0976214  
C401     C      0.840170000000     0.181220000000     0.914790000000    -0.0173757  
C402     C      0.850780000000     0.168370000000     0.971220000000    -0.111227   
C403     C      0.818010000000     0.172200000000     0.896120000000    -0.0324397  
C404     C      0.848160000000     0.165110000000     0.007560000000     0.0833576  
C405     C      0.823470000000     0.184230000000     0.009620000000     0.186954   
C406     C      0.817940000000     0.172110000000     0.859420000000    -0.0378234  
C407     C      0.839680000000     0.180250000000     0.801270000000     0.050216   
C408     C      0.839760000000     0.179900000000     0.953660000000     0.071914   
C409     C      0.827330000000     0.168510000000     0.290060000000    -0.145006   
C410     C      0.794970000000     0.137890000000     0.511150000000     0.0763526  
C411     C      0.833530000000     0.139490000000     0.508590000000     0.0766923  
C412     C      0.792450000000     0.135100000000     0.474680000000    -0.0982331  
C413     C      0.802130000000     0.149620000000     0.397990000000    -0.0379137  
C414     C      0.803590000000     0.151880000000     0.361420000000    -0.0325745  
C415     C      0.810280000000     0.135230000000     0.415490000000    -0.00733046 
C416     C      0.831640000000     0.136810000000     0.472060000000    -0.0976951  
C417     C      0.813300000000     0.139850000000     0.341440000000    -0.0171199  
C418     C      0.812860000000     0.125680000000     0.279500000000    -0.111039   
C419     C      0.820520000000     0.124640000000     0.358740000000    -0.0324594  
C420     C      0.817440000000     0.130820000000     0.243680000000     0.0822238  
C421     C      0.832820000000     0.173500000000     0.254160000000     0.188083   
C422     C      0.819040000000     0.122370000000     0.395400000000    -0.0381956  
C423     C      0.811170000000     0.135120000000     0.454560000000     0.0503304  
C424     C      0.817400000000     0.144560000000     0.303060000000     0.0714496  
C425     C      0.132060000000     0.307830000000     0.452600000000    -0.144539   
C426     C      0.166840000000     0.354420000000     0.677310000000     0.0763136  
C427     C      0.133630000000     0.313430000000     0.679880000000     0.0761709  
C428     C      0.164660000000     0.354590000000     0.640750000000    -0.0973642  
C429     C      0.167100000000     0.345990000000     0.563410000000    -0.0378073  
C430     C      0.165930000000     0.345310000000     0.526710000000    -0.0326281  
C431     C      0.145630000000     0.332790000000     0.583800000000    -0.00720687 
C432     C      0.131280000000     0.312790000000     0.643260000000    -0.0971237  
C433     C      0.143380000000     0.331040000000     0.509450000000    -0.0173696  
C434     C      0.152280000000     0.351970000000     0.451190000000    -0.111604   
C435     C      0.121930000000     0.317640000000     0.529480000000    -0.0329479  
C436     C      0.152640000000     0.351140000000     0.414580000000     0.0831203  
C437     C      0.132380000000     0.307350000000     0.415560000000     0.187077   
C438     C      0.122990000000     0.318690000000     0.566270000000    -0.0380711  
C439     C      0.147050000000     0.333450000000     0.623050000000     0.0496617  
C440     C      0.142470000000     0.330230000000     0.470550000000     0.0717244  
C441     C      0.190630000000     0.324020000000     0.145730000000    -0.143836   
C442     C      0.155320000000     0.312180000000     0.919780000000     0.0764592  
C443     C      0.193680000000     0.349030000000     0.914510000000     0.0769644  
C444     C      0.158010000000     0.312570000000     0.956330000000    -0.0972164  
C445     C      0.173430000000     0.312210000000     0.032130000000    -0.038214   
C446     C      0.174760000000     0.313830000000     0.068860000000    -0.0322598  
C447     C      0.181330000000     0.333440000000     0.011420000000    -0.00699507 
C448     C      0.197010000000     0.349900000000     0.950910000000    -0.0976915  
C449     C      0.184030000000     0.336720000000     0.085740000000    -0.0168403  
C450     C      0.178180000000     0.354450000000     0.141500000000    -0.110495   
C451     C      0.192390000000     0.357980000000     0.064990000000    -0.032405   
C452     C      0.177400000000     0.355110000000     0.178070000000     0.0827069  
C453     C      0.190540000000     0.325560000000     0.182700000000     0.186943   
C454     C      0.190990000000     0.356360000000     0.028340000000    -0.0379761  
C455     C      0.178890000000     0.331770000000     0.972420000000     0.0500482  
C456     C      0.184240000000     0.338350000000     0.124810000000     0.0708855  
C457     C      0.939240000000     0.241250000000     0.158150000000    -0.144089   
C458     C      0.081720000000     0.276310000000     0.261410000000     0.0754822  
C459     C      0.083880000000     0.314970000000     0.255440000000     0.0757954  
C460     C      0.057970000000     0.264390000000     0.247340000000    -0.0972092  
C461     C      0.003230000000     0.243440000000     0.234280000000    -0.0425165  
C462     C      0.979980000000     0.231470000000     0.218530000000    -0.0283422  
C463     C      0.022080000000     0.265700000000     0.220470000000    -0.00489231 
C464     C      0.060200000000     0.303640000000     0.241070000000    -0.0970908  
C465     C      0.975030000000     0.241410000000     0.188490000000    -0.0189831  
C466     C      0.937820000000     0.202760000000     0.168040000000    -0.110584   
C467     C      0.993860000000     0.263780000000     0.174810000000    -0.02821    
C468     C      0.914220000000     0.190570000000     0.153690000000     0.0815629  
C469     C      0.915790000000     0.228650000000     0.142430000000     0.185695   
C470     C      0.017100000000     0.275800000000     0.190670000000    -0.0423834  
C471     C      0.046990000000     0.278060000000     0.236660000000     0.0488134  
C472     C      0.950350000000     0.228340000000     0.171500000000     0.071206   
C473     C      0.386020000000     0.460280000000     0.437360000000    -0.143353   
C474     C      0.243420000000     0.354050000000     0.334740000000     0.0760103  
C475     C      0.243390000000     0.391790000000     0.337970000000     0.0762565  
C476     C      0.267390000000     0.365310000000     0.348110000000    -0.0979981  
C477     C      0.323400000000     0.400200000000     0.357360000000    -0.038328   
C478     C      0.346960000000     0.411820000000     0.372260000000    -0.0323144  
C479     C      0.304260000000     0.402210000000     0.373220000000    -0.00733858 
C480     C      0.267140000000     0.403490000000     0.352020000000    -0.0983065  
C481     C      0.351790000000     0.425380000000     0.403700000000    -0.0164874  
C482     C      0.391790000000     0.427070000000     0.418180000000    -0.10937    
C483     C      0.332380000000     0.426970000000     0.419740000000    -0.0321317  
C484     C      0.415440000000     0.439220000000     0.432490000000     0.0816761  
C485     C      0.409330000000     0.471500000000     0.453490000000     0.186481   
C486     C      0.308980000000     0.415720000000     0.404500000000    -0.0385104  
C487     C      0.279350000000     0.390210000000     0.357340000000     0.050397   
C488     C      0.376920000000     0.437820000000     0.419650000000     0.0701034  
C489     C      0.524220000000     0.017350000000     0.810910000000    -0.143511   
C490     C      0.484110000000     0.969880000000     0.587430000000     0.0768844  
C491     C      0.517340000000     0.010850000000     0.583140000000     0.0766232  
C492     C      0.487250000000     0.970160000000     0.623880000000    -0.098169   
C493     C      0.510770000000     0.974720000000     0.697390000000    -0.0386042  
C494     C      0.512940000000     0.975730000000     0.734060000000    -0.0322926  
C495     C      0.508050000000     0.992640000000     0.679050000000    -0.00734115 
C496     C      0.520620000000     0.011930000000     0.619580000000    -0.0986663  
C497     C      0.511900000000     0.994410000000     0.753280000000    -0.016492   
C498     C      0.503280000000     0.973210000000     0.812090000000    -0.109722   
C499     C      0.509130000000     0.012300000000     0.734640000000    -0.0321644  
C500     C      0.503630000000     0.974010000000     0.848740000000     0.0828984  
C501     C      0.524610000000     0.017790000000     0.847940000000     0.187212   
C502     C      0.507470000000     0.011550000000     0.697940000000    -0.0385618  
C503     C      0.505420000000     0.991480000000     0.640310000000     0.0508616  
C504     C      0.513170000000     0.994990000000     0.792550000000     0.070475   
C505     C      0.483520000000     0.972640000000     0.126680000000    -0.143622   
C506     C      0.454750000000     0.972120000000     0.349770000000     0.0755722  
C507     C      0.492040000000     0.010090000000     0.344620000000     0.0764743  
C508     C      0.451490000000     0.971110000000     0.313280000000    -0.0976862  
C509     C      0.474250000000     0.009420000000     0.232410000000    -0.0383272  
C510     C      0.475050000000     0.008390000000     0.195730000000    -0.0324844  
C511     C      0.467150000000     0.988230000000     0.252880000000    -0.007133   
C512     C      0.489350000000     0.009650000000     0.308130000000    -0.0977441  
C513     C      0.468730000000     0.986130000000     0.178630000000    -0.016645   
C514     C      0.467580000000     0.999890000000     0.116880000000    -0.109791   
C515     C      0.460540000000     0.964720000000     0.199010000000    -0.0326114  
C516     C      0.473300000000     0.000730000000     0.081250000000     0.0820871  
C517     C      0.490180000000     0.974560000000     0.091010000000     0.186941   
C518     C      0.459780000000     0.965750000000     0.235700000000    -0.0381286  
C519     C      0.469080000000     0.989850000000     0.291910000000     0.0500424  
C520     C      0.472630000000     0.985690000000     0.140080000000     0.0707161  
C521     C      0.723060000000     0.086860000000     0.100060000000    -0.143904   
C522     C      0.579760000000     0.050630000000     0.998320000000     0.0753291  
C523     C      0.578330000000     0.012300000000     0.003960000000     0.0746768  
C524     C      0.603580000000     0.062880000000     0.012120000000    -0.0976113  
C525     C      0.646190000000     0.081700000000     0.063120000000    -0.0382862  
C526     C      0.669480000000     0.093750000000     0.078700000000    -0.0326496  
C527     C      0.639790000000     0.062250000000     0.039320000000    -0.00719975 
C528     C      0.602140000000     0.023980000000     0.017990000000    -0.0973168  
C529     C      0.686950000000     0.086620000000     0.071000000000    -0.0170184  
C530     C      0.724550000000     0.125370000000     0.090130000000    -0.110721   
C531     C      0.680520000000     0.067030000000     0.047480000000    -0.0325798  
C532     C      0.748290000000     0.137570000000     0.103990000000     0.0812575  
C533     C      0.746660000000     0.099450000000     0.115340000000     0.186848   
C534     C      0.657220000000     0.055000000000     0.031780000000    -0.0382648  
C535     C      0.614950000000     0.049550000000     0.022720000000     0.0495138  
C536     C      0.711890000000     0.099780000000     0.087080000000     0.0706752  
C537     C      0.169860000000     0.852030000000     0.448410000000    -0.14419    
C538     C      0.186630000000     0.821030000000     0.673110000000     0.0761588  
C539     C      0.178740000000     0.854230000000     0.674630000000     0.0763159  
C540     C      0.188760000000     0.822710000000     0.636480000000    -0.0972469  
C541     C      0.176080000000     0.818660000000     0.559440000000    -0.037727   
C542     C      0.175390000000     0.818990000000     0.522710000000    -0.0325707  
C543     C      0.184920000000     0.840570000000     0.578940000000    -0.00705263 
C544     C      0.180270000000     0.856110000000     0.637970000000    -0.0969007  
C545     C      0.183070000000     0.841130000000     0.504560000000    -0.0172325  
C546     C      0.192470000000     0.830440000000     0.445590000000    -0.111277   
C547     C      0.191860000000     0.863040000000     0.523750000000    -0.0328278  
C548     C      0.190430000000     0.829860000000     0.409060000000     0.0830762  
C549     C      0.168230000000     0.851530000000     0.411420000000     0.187037   
C550     C      0.192990000000     0.862810000000     0.560520000000    -0.0380863  
C551     C      0.184950000000     0.839990000000     0.618230000000     0.049641   
C552     C      0.181770000000     0.841210000000     0.465660000000     0.0715776  
C553     C      0.137060000000     0.787450000000     0.944500000000    -0.143633   
C554     C      0.167870000000     0.806110000000     0.171330000000     0.0763968  
C555     C      0.130540000000     0.806830000000     0.176110000000     0.0756807  
C556     C      0.165410000000     0.804070000000     0.134780000000    -0.0974544  
C557     C      0.150630000000     0.789600000000     0.058750000000    -0.0382959  
C558     C      0.150490000000     0.790760000000     0.022010000000    -0.0324064  
C559     C      0.143450000000     0.803610000000     0.079280000000    -0.00712867 
C560     C      0.127480000000     0.804750000000     0.139580000000    -0.0976051  
C561     C      0.143140000000     0.805940000000     0.004880000000    -0.0167014  
C562     C      0.152010000000     0.830780000000     0.949540000000    -0.110032   
C563     C      0.135410000000     0.819490000000     0.025400000000    -0.0325026  
C564     C      0.153710000000     0.832710000000     0.912990000000     0.0823524  
C565     C      0.138090000000     0.789600000000     0.907570000000     0.186692   
C566     C      0.135590000000     0.818360000000     0.062130000000    -0.0380436  
C567     C      0.145250000000     0.803770000000     0.118360000000     0.0498744  
C568     C      0.144140000000     0.808090000000     0.965820000000     0.0705728  
C569     C      0.273900000000     0.863050000000     0.834770000000    -0.144315   
C570     C      0.415980000000     0.970720000000     0.935930000000     0.0766354  
C571     C      0.416020000000     0.933010000000     0.933100000000     0.0764902  
C572     C      0.391760000000     0.959260000000     0.923580000000    -0.0970011  
C573     C      0.346880000000     0.934760000000     0.876760000000    -0.037716   
C574     C      0.323400000000     0.923110000000     0.861670000000    -0.0324929  
C575     C      0.354130000000     0.921920000000     0.899790000000    -0.00693699 
C576     C      0.391930000000     0.921050000000     0.920220000000    -0.096977   
C577     C      0.306730000000     0.898250000000     0.868830000000    -0.016968   
C578     C      0.267460000000     0.896430000000     0.850690000000    -0.110669   
C579     C      0.313810000000     0.885390000000     0.891910000000    -0.0326674  
C580     C      0.244350000000     0.884110000000     0.834740000000     0.0821756  
C581     C      0.251160000000     0.851590000000     0.817020000000     0.186965   
C582     C      0.337150000000     0.897130000000     0.907420000000    -0.0378988  
C583     C      0.379470000000     0.934170000000     0.914980000000     0.0498248  
C584     C      0.282210000000     0.885610000000     0.851650000000     0.0714022  
C585     C      0.822280000000     0.683540000000     0.976440000000    -0.144494   
C586     C      0.808400000000     0.636250000000     0.752360000000     0.0762472  
C587     C      0.816570000000     0.677420000000     0.750740000000     0.0757811  
C588     C      0.805800000000     0.635650000000     0.788890000000    -0.0976315  
C589     C      0.817610000000     0.644030000000     0.866180000000    -0.0378386  
C590     C      0.817840000000     0.644940000000     0.902900000000    -0.032616   
C591     C      0.808910000000     0.657090000000     0.846270000000    -0.00723732 
C592     C      0.814550000000     0.677620000000     0.787330000000    -0.0975644  
C593     C      0.809800000000     0.659280000000     0.920590000000    -0.017392   
C594     C      0.800190000000     0.639410000000     0.979740000000    -0.111436   
C595     C      0.801070000000     0.672320000000     0.900970000000    -0.0327848  
C596     C      0.801810000000     0.641050000000     0.016300000000     0.0831557  
C597     C      0.823430000000     0.684860000000     0.013410000000     0.186639   
C598     C      0.800420000000     0.671070000000     0.864220000000    -0.0381494  
C599     C      0.809460000000     0.656680000000     0.807040000000     0.0497688  
C600     C      0.810810000000     0.660770000000     0.959450000000     0.0717877  
C601     C      0.820560000000     0.648090000000     0.294780000000    -0.14418    
C602     C      0.848310000000     0.646650000000     0.517440000000     0.0768975  
C603     C      0.848380000000     0.684400000000     0.513300000000     0.0768593  
C604     C      0.851140000000     0.646310000000     0.481020000000    -0.0977657  
C605     C      0.837570000000     0.641360000000     0.403730000000    -0.0379761  
C606     C      0.835790000000     0.640410000000     0.367060000000    -0.0324952  
C607     C      0.852380000000     0.663840000000     0.421060000000    -0.00710215 
C608     C      0.851160000000     0.684610000000     0.476820000000    -0.0974029  
C609     C      0.848720000000     0.661900000000     0.346820000000    -0.0168611  
C610     C      0.863710000000     0.675360000000     0.285030000000    -0.110306   
C611     C      0.864340000000     0.684220000000     0.364020000000    -0.0323113  
C612     C      0.858930000000     0.675530000000     0.249190000000     0.0826233  
C613     C      0.815930000000     0.649380000000     0.258880000000     0.187321   
C614     C      0.866140000000     0.685170000000     0.400740000000    -0.0381635  
C615     C      0.852090000000     0.665170000000     0.460120000000     0.0502701  
C616     C      0.844460000000     0.661360000000     0.308250000000     0.0711471  
C617     C      0.721610000000     0.591750000000     0.591620000000    -0.144329   
C618     C      0.577600000000     0.558720000000     0.498660000000     0.0761215  
C619     C      0.577850000000     0.521070000000     0.499160000000     0.0754035  
C620     C      0.602140000000     0.571410000000     0.509710000000    -0.0969979  
C621     C      0.648210000000     0.591360000000     0.553970000000    -0.0378542  
C622     C      0.671990000000     0.602910000000     0.568030000000    -0.0325973  
C623     C      0.640440000000     0.571530000000     0.530380000000    -0.00703261 
C624     C      0.602250000000     0.533110000000     0.510730000000    -0.0971192  
C625     C      0.688440000000     0.594700000000     0.559270000000    -0.0171065  
C626     C      0.728180000000     0.631730000000     0.576400000000    -0.110868   
C627     C      0.680870000000     0.575050000000     0.535600000000    -0.0329275  
C628     C      0.751470000000     0.642230000000     0.591710000000     0.0819955  
C629     C      0.744540000000     0.602740000000     0.608850000000     0.186593   
C630     C      0.657220000000     0.563730000000     0.521080000000    -0.0380982  
C631     C      0.614740000000     0.558590000000     0.516460000000     0.0494625  
C632     C      0.713240000000     0.606230000000     0.575480000000     0.0712742  
C633     C      0.935350000000     0.729330000000     0.687210000000    -0.144519   
C634     C      0.086020000000     0.765180000000     0.753640000000     0.0754215  
C635     C      0.083660000000     0.801480000000     0.760790000000     0.0761643  
C636     C      0.062080000000     0.752760000000     0.740210000000    -0.0970751  
C637     C      0.006700000000     0.727470000000     0.729910000000    -0.042169   
C638     C      0.982670000000     0.715820000000     0.716710000000    -0.0282494  
C639     C      0.023250000000     0.752300000000     0.721940000000    -0.00488514 
C640     C      0.059650000000     0.789590000000     0.747700000000    -0.0972018  
C641     C      0.974600000000     0.728750000000     0.695440000000    -0.0191957  
C642     C      0.936380000000     0.692880000000     0.670950000000    -0.110933   
C643     C      0.991220000000     0.753410000000     0.686980000000    -0.0284135  
C644     C      0.911630000000     0.681870000000     0.661410000000     0.082721   
C645     C      0.910080000000     0.717470000000     0.679350000000     0.187049   
C646     C      0.015280000000     0.765020000000     0.699950000000    -0.0421776  
C647     C      0.048610000000     0.765000000000     0.736810000000     0.0488554  
C648     C      0.948580000000     0.716960000000     0.683650000000     0.0724059  
H1       H      0.662310000000     0.897740000000     0.769170000000     0.0212223  
H2       H      0.824750000000     0.088900000000     0.669880000000     0.019654   
H3       H      0.709390000000     0.981770000000     0.761540000000     0.0360147  
H4       H      0.780080000000     0.004920000000     0.681390000000     0.0346419  
H5       H      0.805520000000     0.048970000000     0.697280000000     0.0544191  
H6       H      0.759740000000     0.964300000000     0.708450000000     0.0360879  
H7       H      0.734260000000     0.038810000000     0.672080000000     0.0643961  
H8       H      0.683280000000     0.939500000000     0.747260000000     0.0510342  
H9       H      0.752980000000     0.942510000000     0.762550000000     0.0508476  
H10      H      0.729530000000     0.022270000000     0.733770000000     0.0353139  
H11      H      0.731350000000     0.900390000000     0.783280000000     0.0210411  
H12      H      0.731750000000     0.067310000000     0.634860000000     0.0841476  
H13      H      0.757700000000     0.092090000000     0.615160000000     0.101159   
H14      H      0.827990000000     0.228850000000     0.593890000000     0.0208943  
H15      H      0.991820000000     0.423180000000     0.507480000000     0.0206771  
H16      H      0.874530000000     0.312140000000     0.585640000000     0.0356538  
H17      H      0.946960000000     0.337940000000     0.508040000000     0.0352142  
H18      H      0.971750000000     0.382040000000     0.531030000000     0.055215   
H19      H      0.925960000000     0.296370000000     0.532020000000     0.0362307  
H20      H      0.901800000000     0.371280000000     0.496880000000     0.0642128  
H21      H      0.848850000000     0.270530000000     0.571790000000     0.0505061  
H22      H      0.918440000000     0.272650000000     0.583060000000     0.0511432  
H23      H      0.895080000000     0.353390000000     0.560310000000     0.0350988  
H24      H      0.896850000000     0.230520000000     0.603510000000     0.0212977  
H25      H      0.900970000000     0.400710000000     0.459670000000     0.0837044  
H26      H      0.927760000000     0.426520000000     0.443710000000     0.10143    
H27      H      0.995940000000     0.564580000000     0.435290000000     0.0232765  
H28      H      0.160870000000     0.753460000000     0.332440000000     0.0190306  
H29      H      0.044170000000     0.648780000000     0.425800000000     0.0359141  
H30      H      0.114390000000     0.669690000000     0.345660000000     0.0343656  
H31      H      0.140840000000     0.713550000000     0.360100000000     0.0538741  
H32      H      0.093290000000     0.629330000000     0.373400000000     0.0360617  
H33      H      0.070260000000     0.705690000000     0.336420000000     0.0641977  
H34      H      0.017290000000     0.606160000000     0.412360000000     0.0504053  
H35      H      0.086610000000     0.608560000000     0.428560000000     0.0506811  
H36      H      0.065150000000     0.689090000000     0.397500000000     0.0351263  
H37      H      0.064690000000     0.566760000000     0.450350000000     0.0210795  
H38      H      0.068500000000     0.734760000000     0.299520000000     0.0840908  
H39      H      0.094730000000     0.759140000000     0.279660000000     0.100922   
H40      H      0.493510000000     0.565970000000     0.935290000000     0.0208253  
H41      H      0.658630000000     0.755770000000     0.836850000000     0.0196893  
H42      H      0.542750000000     0.648550000000     0.923830000000     0.0356789  
H43      H      0.611570000000     0.670180000000     0.840660000000     0.0349582  
H44      H      0.638540000000     0.714860000000     0.861440000000     0.0547042  
H45      H      0.590100000000     0.629070000000     0.866270000000     0.0362118  
H46      H      0.568180000000     0.705520000000     0.832640000000     0.0644158  
H47      H      0.515180000000     0.607160000000     0.911570000000     0.0504401  
H48      H      0.583260000000     0.605730000000     0.917640000000     0.051022   
H49      H      0.563660000000     0.689260000000     0.896900000000     0.0352175  
H50      H      0.560760000000     0.564040000000     0.939790000000     0.0212496  
H51      H      0.566930000000     0.734900000000     0.795710000000     0.0836919  
H52      H      0.593550000000     0.760250000000     0.778330000000     0.10083    
H53      H      0.234920000000     0.895510000000     0.264220000000     0.0210267  
H54      H      0.259200000000     0.081390000000     0.147020000000     0.0197686  
H55      H      0.263120000000     0.962450000000     0.193650000000     0.0361436  
H56      H      0.233030000000     0.019100000000     0.228300000000     0.034706   
H57      H      0.239040000000     0.039120000000     0.166110000000     0.0545475  
H58      H      0.213070000000     0.977630000000     0.252420000000     0.0351973  
H59      H      0.308200000000     0.048370000000     0.201060000000     0.0646578  
H60      H      0.256370000000     0.937620000000     0.243280000000     0.0507846  
H61      H      0.187030000000     0.936630000000     0.238490000000     0.0501681  
H62      H      0.283780000000     0.004520000000     0.171010000000     0.0353714  
H63      H      0.166510000000     0.895210000000     0.261100000000     0.0200904  
H64      H      0.342440000000     0.087820000000     0.202890000000     0.0838868  
H65      H      0.340930000000     0.114480000000     0.194140000000     0.101796   
H66      H      0.391460000000     0.234390000000     0.105990000000     0.0209573  
H67      H      0.417320000000     0.420660000000     0.988930000000     0.01945    
H68      H      0.414760000000     0.296500000000     0.028320000000     0.0359198  
H69      H      0.383370000000     0.352380000000     0.061290000000     0.0349458  
H70      H      0.393730000000     0.377770000000     0.005640000000     0.0545753  
H71      H      0.362600000000     0.310250000000     0.083700000000     0.0362002  
H72      H      0.460200000000     0.379310000000     0.037430000000     0.0640551  
H73      H      0.410150000000     0.275710000000     0.082940000000     0.0507053  
H74      H      0.337980000000     0.267230000000     0.068940000000     0.0510579  
H75      H      0.435700000000     0.338680000000     0.006600000000     0.0345204  
H76      H      0.319800000000     0.225990000000     0.093150000000     0.0211637  
H77      H      0.496660000000     0.417070000000     0.040390000000     0.0833999  
H78      H      0.498010000000     0.445330000000     0.032490000000     0.100717   
H79      H      0.694630000000     0.820580000000     0.695300000000     0.0209339  
H80      H      0.620810000000     0.791620000000     0.403240000000     0.0193021  
H81      H      0.681640000000     0.794120000000     0.581580000000     0.0354636  
H82      H      0.634610000000     0.825210000000     0.514980000000     0.0356572  
H83      H      0.620090000000     0.789030000000     0.466690000000     0.0552722  
H84      H      0.634050000000     0.825740000000     0.579010000000     0.0359497  
H85      H      0.699050000000     0.830770000000     0.469060000000     0.0646734  
H86      H      0.695040000000     0.818290000000     0.631870000000     0.0506402  
H87      H      0.619500000000     0.802120000000     0.629480000000     0.0504218  
H88      H      0.683160000000     0.795030000000     0.517340000000     0.0347657  
H89      H      0.620280000000     0.806020000000     0.692760000000     0.0194411  
H90      H      0.720770000000     0.840210000000     0.415390000000     0.0844287  
H91      H      0.706190000000     0.830280000000     0.374130000000     0.100974   
H92      H      0.632630000000     0.844400000000     0.901660000000     0.0209773  
H93      H      0.687580000000     0.868400000000     0.197590000000     0.0198559  
H94      H      0.653420000000     0.804220000000     0.019660000000     0.0376132  
H95      H      0.662910000000     0.878440000000     0.080730000000     0.034818   
H96      H      0.690160000000     0.871390000000     0.134200000000     0.0551415  
H97      H      0.666190000000     0.878470000000     0.016200000000     0.036827   
H98      H      0.615960000000     0.811620000000     0.125990000000     0.0649628  
H99      H      0.631710000000     0.847930000000     0.965330000000     0.0519283  
H100     H      0.692240000000     0.834080000000     0.974140000000     0.0522651  
H101     H      0.649400000000     0.803930000000     0.083920000000     0.0363232  
H102     H      0.693300000000     0.831350000000     0.910390000000     0.0208221  
H103     H      0.591670000000     0.798500000000     0.177300000000     0.0829127  
H104     H      0.602600000000     0.812110000000     0.218820000000     0.0970462  
H105     H      0.725440000000     0.824010000000     0.266410000000     0.0199903  
H106     H      0.756860000000     0.662130000000     0.171880000000     0.0176302  
H107     H      0.762010000000     0.777200000000     0.256340000000     0.0353928  
H108     H      0.716020000000     0.706920000000     0.175000000000     0.0348292  
H109     H      0.735270000000     0.681430000000     0.196500000000     0.0541151  
H110     H      0.695350000000     0.727490000000     0.200240000000     0.0361147  
H111     H      0.794280000000     0.752240000000     0.165440000000     0.0642692  
H112     H      0.746430000000     0.803450000000     0.243620000000     0.0503078  
H113     H      0.678810000000     0.733860000000     0.251850000000     0.0509837  
H114     H      0.782820000000     0.757110000000     0.229750000000     0.0351294  
H115     H      0.658150000000     0.755180000000     0.272990000000     0.0213238  
H116     H      0.824950000000     0.754130000000     0.128130000000     0.0828653  
H117     H      0.824510000000     0.727820000000     0.111150000000     0.0968144  
H118     H      0.490470000000     0.920650000000     0.440660000000     0.0209461  
H119     H      0.653470000000     0.891970000000     0.344100000000     0.0203528  
H120     H      0.534740000000     0.904570000000     0.359180000000     0.0367592  
H121     H      0.609070000000     0.911600000000     0.416650000000     0.0343597  
H122     H      0.633480000000     0.912690000000     0.368800000000     0.0540588  
H123     H      0.588720000000     0.932470000000     0.442450000000     0.0367383  
H124     H      0.563190000000     0.852610000000     0.337030000000     0.063142   
H125     H      0.511510000000     0.899710000000     0.418880000000     0.051503   
H126     H      0.580310000000     0.968150000000     0.422080000000     0.0518332  
H127     H      0.555560000000     0.884760000000     0.332220000000     0.0333941  
H128     H      0.558710000000     0.988820000000     0.443330000000     0.0210463  
H129     H      0.562320000000     0.823630000000     0.297710000000     0.0823666  
H130     H      0.589050000000     0.825210000000     0.280250000000     0.0972496  
H131     H      0.957880000000     0.499330000000     0.569610000000     0.0211606  
H132     H      0.030040000000     0.532700000000     0.863310000000     0.0180747  
H133     H      0.959510000000     0.475990000000     0.685760000000     0.0372796  
H134     H      0.023970000000     0.549230000000     0.748560000000     0.0334976  
H135     H      0.030650000000     0.534200000000     0.800180000000     0.0536874  
H136     H      0.025420000000     0.547140000000     0.684550000000     0.0366427  
H137     H      0.951420000000     0.494670000000     0.798670000000     0.063416   
H138     H      0.956660000000     0.503430000000     0.633050000000     0.0518802  
H139     H      0.030680000000     0.516090000000     0.640350000000     0.0520555  
H140     H      0.958670000000     0.477110000000     0.749790000000     0.0345234  
H141     H      0.031240000000     0.511310000000     0.576880000000     0.0208554  
H142     H      0.930150000000     0.485780000000     0.852300000000     0.0842489  
H143     H      0.945120000000     0.495840000000     0.893320000000     0.100222   
H144     H      0.026550000000     0.479580000000     0.366210000000     0.0209891  
H145     H      0.027280000000     0.523600000000     0.076720000000     0.0197388  
H146     H      0.957120000000     0.451340000000     0.245310000000     0.0354047  
H147     H      0.038120000000     0.503190000000     0.188110000000     0.0348589  
H148     H      0.026630000000     0.519830000000     0.139710000000     0.0536791  
H149     H      0.035430000000     0.501860000000     0.252040000000     0.0359995  
H150     H      0.975800000000     0.442250000000     0.131090000000     0.0629948  
H151     H      0.028160000000     0.476230000000     0.302840000000     0.0510585  
H152     H      0.959990000000     0.477150000000     0.293840000000     0.0512712  
H153     H      0.959630000000     0.453620000000     0.181290000000     0.0351026  
H154     H      0.958590000000     0.479830000000     0.357190000000     0.0201642  
H155     H      0.966830000000     0.424150000000     0.075030000000     0.08392    
H156     H      0.980920000000     0.440640000000     0.036280000000     0.101232   
H157     H      0.896910000000     0.662090000000     0.103760000000     0.0214557  
H158     H      0.929220000000     0.500360000000     0.011080000000     0.0194299  
H159     H      0.935770000000     0.616390000000     0.098760000000     0.0361709  
H160     H      0.889540000000     0.544500000000     0.020160000000     0.0340983  
H161     H      0.908350000000     0.519700000000     0.037630000000     0.0540398  
H162     H      0.868590000000     0.564660000000     0.045680000000     0.0357707  
H163     H      0.969340000000     0.590810000000     0.012160000000     0.0643988  
H164     H      0.918670000000     0.641720000000     0.082980000000     0.0511557  
H165     H      0.853190000000     0.571410000000     0.099510000000     0.0507669  
H166     H      0.956820000000     0.596360000000     0.072610000000     0.035341   
H167     H      0.831750000000     0.592360000000     0.119130000000     0.0210106  
H168     H      0.000620000000     0.593180000000     0.975820000000     0.0821634  
H169     H      0.999600000000     0.567220000000     0.956430000000     0.101431   
H170     H      0.358390000000     0.150970000000     0.027260000000     0.0210928  
H171     H      0.286090000000     0.125090000000     0.733650000000     0.0192851  
H172     H      0.345780000000     0.124050000000     0.913210000000     0.035473   
H173     H      0.296290000000     0.152840000000     0.847900000000     0.0355265  
H174     H      0.283990000000     0.120620000000     0.796950000000     0.0548225  
H175     H      0.295250000000     0.152190000000     0.911930000000     0.0361546  
H176     H      0.362920000000     0.160640000000     0.802620000000     0.0643033  
H177     H      0.358430000000     0.148120000000     0.963840000000     0.0504875  
H178     H      0.281760000000     0.128130000000     0.962380000000     0.0506444  
H179     H      0.347590000000     0.125940000000     0.849040000000     0.0346128  
H180     H      0.282810000000     0.132480000000     0.025650000000     0.0208941  
H181     H      0.385650000000     0.170880000000     0.749930000000     0.084158   
H182     H      0.371890000000     0.162260000000     0.707990000000     0.100665   
H183     H      0.291470000000     0.168110000000     0.233840000000     0.0209761  
H184     H      0.361770000000     0.194990000000     0.528570000000     0.0188308  
H185     H      0.293590000000     0.144260000000     0.347450000000     0.0366695  
H186     H      0.358880000000     0.214690000000     0.413900000000     0.033883   
H187     H      0.363850000000     0.197720000000     0.465400000000     0.0537276  
H188     H      0.360740000000     0.214390000000     0.349710000000     0.0364925  
H189     H      0.284800000000     0.161180000000     0.460400000000     0.0631516  
H190     H      0.290910000000     0.171710000000     0.297350000000     0.0513429  
H191     H      0.365690000000     0.186300000000     0.302030000000     0.0512403  
H192     H      0.292220000000     0.143700000000     0.411450000000     0.0340908  
H193     H      0.365640000000     0.182150000000     0.238350000000     0.0198292  
H194     H      0.262430000000     0.152280000000     0.512920000000     0.0829256  
H195     H      0.276540000000     0.161260000000     0.554600000000     0.0960997  
H196     H      0.322040000000     0.089830000000     0.595030000000     0.0213776  
H197     H      0.483840000000     0.058230000000     0.500260000000     0.019205   
H198     H      0.364960000000     0.069050000000     0.519490000000     0.0366283  
H199     H      0.439870000000     0.076760000000     0.575990000000     0.0343886  
H200     H      0.463560000000     0.079010000000     0.524120000000     0.0539726  
H201     H      0.419700000000     0.097700000000     0.601940000000     0.0358636  
H202     H      0.393190000000     0.015480000000     0.502370000000     0.0641093  
H203     H      0.341520000000     0.067490000000     0.572840000000     0.0514452  
H204     H      0.412650000000     0.132200000000     0.587430000000     0.050687   
H205     H      0.385250000000     0.048400000000     0.493250000000     0.0341647  
H206     H      0.392680000000     0.154020000000     0.609780000000     0.019679   
H207     H      0.391840000000     0.984040000000     0.467470000000     0.084261   
H208     H      0.418300000000     0.985250000000     0.449420000000     0.101073   
H209     H      0.064930000000     0.496020000000     0.933490000000     0.0207052  
H210     H      0.093790000000     0.333170000000     0.836160000000     0.0198507  
H211     H      0.100370000000     0.448450000000     0.921690000000     0.0355151  
H212     H      0.053990000000     0.379040000000     0.839170000000     0.034764   
H213     H      0.072630000000     0.352910000000     0.860760000000     0.0546268  
H214     H      0.033680000000     0.399860000000     0.864790000000     0.0358764  
H215     H      0.132350000000     0.423410000000     0.830060000000     0.0643455  
H216     H      0.085400000000     0.475190000000     0.909850000000     0.050316   
H217     H      0.017050000000     0.406160000000     0.916270000000     0.049793   
H218     H      0.120830000000     0.428170000000     0.894680000000     0.035231   
H219     H      0.996910000000     0.427790000000     0.938270000000     0.0218907  
H220     H      0.162810000000     0.424840000000     0.792640000000     0.0837426  
H221     H      0.161880000000     0.398310000000     0.775540000000     0.101097   
H222     H      0.165160000000     0.262050000000     0.773040000000     0.0208609  
H223     H      0.325330000000     0.229280000000     0.675300000000     0.0204497  
H224     H      0.209120000000     0.246440000000     0.690460000000     0.0369034  
H225     H      0.282680000000     0.251520000000     0.747700000000     0.0345597  
H226     H      0.306730000000     0.251460000000     0.699840000000     0.0541925  
H227     H      0.262990000000     0.272970000000     0.773880000000     0.0369804  
H228     H      0.235360000000     0.193080000000     0.668460000000     0.0632375  
H229     H      0.186010000000     0.240980000000     0.751040000000     0.0515732  
H230     H      0.254930000000     0.309310000000     0.753570000000     0.0520713  
H231     H      0.229310000000     0.226130000000     0.663130000000     0.0335503  
H232     H      0.233510000000     0.330130000000     0.774990000000     0.0210719  
H233     H      0.233100000000     0.163410000000     0.629430000000     0.0822888  
H234     H      0.259170000000     0.163700000000     0.611940000000     0.0966584  
H235     H      0.488090000000     0.454810000000     0.572290000000     0.0209713  
H236     H      0.454590000000     0.493870000000     0.866040000000     0.0185416  
H237     H      0.510450000000     0.478650000000     0.688530000000     0.0370301  
H238     H      0.437680000000     0.471240000000     0.751270000000     0.0336816  
H239     H      0.452970000000     0.492870000000     0.802890000000     0.053681   
H240     H      0.439740000000     0.474620000000     0.687230000000     0.0364445  
H241     H      0.491510000000     0.452130000000     0.801560000000     0.0633828  
H242     H      0.483760000000     0.449300000000     0.635700000000     0.0515379  
H243     H      0.470160000000     0.510050000000     0.642830000000     0.0515562  
H244     H      0.509330000000     0.476760000000     0.752560000000     0.0343808  
H245     H      0.475140000000     0.515560000000     0.579430000000     0.0196526  
H246     H      0.500160000000     0.439530000000     0.855230000000     0.0843803  
H247     H      0.490320000000     0.444730000000     0.896230000000     0.101362   
H248     H      0.531780000000     0.503180000000     0.072860000000     0.0190196  
H249     H      0.490730000000     0.531710000000     0.367640000000     0.0192789  
H250     H      0.547260000000     0.531030000000     0.186070000000     0.035237   
H251     H      0.470080000000     0.501070000000     0.254360000000     0.0355932  
H252     H      0.491470000000     0.535100000000     0.304220000000     0.0549966  
H253     H      0.468360000000     0.500960000000     0.190340000000     0.0360457  
H254     H      0.529720000000     0.494420000000     0.297330000000     0.0643567  
H255     H      0.535660000000     0.506660000000     0.136090000000     0.0498133  
H256     H      0.477100000000     0.524040000000     0.139270000000     0.0506554  
H257     H      0.548490000000     0.529760000000     0.250220000000     0.0345822  
H258     H      0.472830000000     0.518990000000     0.076120000000     0.0210174  
H259     H      0.543240000000     0.484670000000     0.349570000000     0.0841761  
H260     H      0.539250000000     0.494050000000     0.391620000000     0.100871   
H261     H      0.806070000000     0.181150000000     0.731970000000     0.0209496  
H262     H      0.857350000000     0.156340000000     0.020150000000     0.0183173  
H263     H      0.800370000000     0.164110000000     0.846020000000     0.0360863  
H264     H      0.879690000000     0.197710000000     0.910020000000     0.0348004  
H265     H      0.860950000000     0.161400000000     0.956840000000     0.055214   
H266     H      0.879810000000     0.198480000000     0.845670000000     0.0357383  
H267     H      0.817260000000     0.196620000000     0.959590000000     0.064268   
H268     H      0.809410000000     0.187420000000     0.794900000000     0.0507047  
H269     H      0.869890000000     0.172850000000     0.796400000000     0.0508933  
H270     H      0.800610000000     0.164530000000     0.909950000000     0.0352426  
H271     H      0.866860000000     0.168060000000     0.733160000000     0.0209654  
H272     H      0.798600000000     0.197420000000     0.012500000000     0.0835352  
H273     H      0.799840000000     0.182540000000     0.051030000000     0.100563   
H274     H      0.850000000000     0.141390000000     0.520930000000     0.0211979  
H275     H      0.812630000000     0.115370000000     0.226270000000     0.0169045  
H276     H      0.825180000000     0.110880000000     0.408050000000     0.0356897  
H277     H      0.797590000000     0.163480000000     0.348800000000     0.0346957  
H278     H      0.805280000000     0.106890000000     0.288540000000     0.0537857  
H279     H      0.795510000000     0.159980000000     0.412620000000     0.0360726  
H280     H      0.832370000000     0.183630000000     0.308210000000     0.0647389  
H281     H      0.846660000000     0.137100000000     0.457580000000     0.0513179  
H282     H      0.776080000000     0.133340000000     0.462290000000     0.0507018  
H283     H      0.828200000000     0.115240000000     0.344110000000     0.0341949  
H284     H      0.780260000000     0.138280000000     0.525570000000     0.0197385  
H285     H      0.850790000000     0.211720000000     0.262270000000     0.0847736  
H286     H      0.855600000000     0.203170000000     0.220200000000     0.102328   
H287     H      0.121280000000     0.296880000000     0.694320000000     0.0207368  
H288     H      0.161450000000     0.368650000000     0.400870000000     0.0186985  
H289     H      0.105980000000     0.308610000000     0.580870000000     0.0351802  
H290     H      0.182770000000     0.355590000000     0.511740000000     0.0355576  
H291     H      0.160070000000     0.369620000000     0.464320000000     0.0549001  
H292     H      0.184980000000     0.356560000000     0.575700000000     0.0358758  
H293     H      0.123540000000     0.290750000000     0.467360000000     0.0644509  
H294     H      0.117580000000     0.295880000000     0.630980000000     0.0502712  
H295     H      0.176830000000     0.371300000000     0.626570000000     0.0502097  
H296     H      0.104290000000     0.306670000000     0.516660000000     0.0345168  
H297     H      0.180950000000     0.371090000000     0.689750000000     0.0194595  
H298     H      0.111000000000     0.268800000000     0.413820000000     0.0840521  
H299     H      0.115370000000     0.283240000000     0.372450000000     0.100495   
H300     H      0.208070000000     0.363640000000     0.899010000000     0.0212501  
H301     H      0.171370000000     0.367080000000     0.189410000000     0.0195135  
H302     H      0.196990000000     0.373080000000     0.013300000000     0.0361127  
H303     H      0.167990000000     0.297060000000     0.084050000000     0.0346155  
H304     H      0.173070000000     0.365880000000     0.126420000000     0.0543812  
H305     H      0.166170000000     0.294300000000     0.019970000000     0.0358594  
H306     H      0.196780000000     0.312460000000     0.133330000000     0.0638223  
H307     H      0.213700000000     0.364810000000     0.962090000000     0.0509607  
H308     H      0.143400000000     0.298260000000     0.971900000000     0.0510299  
H309     H      0.199960000000     0.375950000000     0.077080000000     0.0341679  
H310     H      0.138660000000     0.297220000000     0.908530000000     0.0209385  
H311     H      0.206370000000     0.303130000000     0.188960000000     0.0840463  
H312     H      0.205420000000     0.317870000000     0.227930000000     0.101131   
H313     H      0.093480000000     0.334820000000     0.258180000000     0.0210408  
H314     H      0.904990000000     0.170640000000     0.153310000000     0.0197021  
H315     H      0.031340000000     0.292750000000     0.179090000000     0.0370408  
H316     H      0.965790000000     0.214500000000     0.230140000000     0.0338208  
H317     H      0.946040000000     0.192060000000     0.176870000000     0.0543283  
H318     H      0.006370000000     0.235360000000     0.257520000000     0.0363534  
H319     H      0.948940000000     0.261170000000     0.159310000000     0.0637645  
H320     H      0.052260000000     0.314870000000     0.233590000000     0.0507798  
H321     H      0.048500000000     0.244590000000     0.244130000000     0.0503869  
H322     H      0.990830000000     0.271770000000     0.151400000000     0.033566   
H323     H      0.089580000000     0.265000000000     0.268890000000     0.0201061  
H324     H      0.917660000000     0.261460000000     0.125620000000     0.0836445  
H325     H      0.892970000000     0.234650000000     0.107340000000     0.101667   
H326     H      0.234570000000     0.402760000000     0.334440000000     0.02076    
H327     H      0.426480000000     0.430470000000     0.429090000000     0.0203627  
H328     H      0.294420000000     0.417240000000     0.417510000000     0.0365112  
H329     H      0.361440000000     0.410450000000     0.358800000000     0.034509   
H330     H      0.385340000000     0.409350000000     0.405790000000     0.0540719  
H331     H      0.320240000000     0.390000000000     0.333070000000     0.0366435  
H332     H      0.374750000000     0.468830000000     0.439740000000     0.0633392  
H333     H      0.275940000000     0.422860000000     0.358590000000     0.0513634  
H334     H      0.276270000000     0.354440000000     0.351980000000     0.0516223  
H335     H      0.335090000000     0.436650000000     0.444390000000     0.0335325  
H336     H      0.234660000000     0.334630000000     0.328400000000     0.0200276  
H337     H      0.403370000000     0.497940000000     0.478480000000     0.0833905  
H338     H      0.429140000000     0.496790000000     0.494390000000     0.101029   
H339     H      0.529430000000     0.027170000000     0.568080000000     0.0207084  
H340     H      0.494680000000     0.956500000000     0.862460000000     0.0185917  
H341     H      0.505120000000     0.025440000000     0.684340000000     0.0368412  
H342     H      0.515590000000     0.961920000000     0.747220000000     0.0337776  
H343     H      0.494370000000     0.955410000000     0.799320000000     0.0537879  
H344     H      0.511490000000     0.960090000000     0.683280000000     0.036674   
H345     H      0.533410000000     0.034560000000     0.796540000000     0.0633596  
H346     H      0.534970000000     0.028680000000     0.631480000000     0.0514133  
H347     H      0.475130000000     0.954020000000     0.639200000000     0.052138   
H348     H      0.507710000000     0.026670000000     0.748350000000     0.0342357  
H349     H      0.469550000000     0.953150000000     0.575740000000     0.0212241  
H350     H      0.546710000000     0.056280000000     0.849680000000     0.084029   
H351     H      0.542880000000     0.041710000000     0.890810000000     0.100561   
H352     H      0.508270000000     0.025570000000     0.355880000000     0.0212706  
H353     H      0.468380000000     0.011500000000     0.064230000000     0.0189604  
H354     H      0.454370000000     0.949110000000     0.250620000000     0.0359324  
H355     H      0.481620000000     0.025280000000     0.180900000000     0.0343124  
H356     H      0.459060000000     0.010220000000     0.126110000000     0.0538428  
H357     H      0.479690000000     0.026960000000     0.244790000000     0.0357612  
H358     H      0.488760000000     0.962530000000     0.144540000000     0.0641768  
H359     H      0.503580000000     0.024410000000     0.292680000000     0.0512927  
H360     H      0.435340000000     0.955630000000     0.301900000000     0.0504899  
H361     H      0.455260000000     0.947220000000     0.186620000000     0.0343965  
H362     H      0.440850000000     0.957070000000     0.365250000000     0.0198273  
H363     H      0.508950000000     0.955030000000     0.099020000000     0.0841877  
H364     H      0.515070000000     0.970000000000     0.058120000000     0.101514   
H365     H      0.568930000000     0.992440000000     0.001440000000     0.0196033  
H366     H      0.757680000000     0.157510000000     0.103910000000     0.016728   
H367     H      0.653040000000     0.040300000000     0.013260000000     0.0359098  
H368     H      0.673700000000     0.108500000000     0.097160000000     0.0341205  
H369     H      0.716540000000     0.136110000000     0.080570000000     0.053225   
H370     H      0.633060000000     0.087430000000     0.070140000000     0.035904   
H371     H      0.712960000000     0.066910000000     0.099860000000     0.0641076  
H372     H      0.610110000000     0.012890000000     0.025990000000     0.0504442  
H373     H      0.612970000000     0.082720000000     0.014510000000     0.0503757  
H374     H      0.693680000000     0.061290000000     0.040690000000     0.0350317  
H375     H      0.571620000000     0.061710000000     0.990920000000     0.0198742  
H376     H      0.744800000000     0.066660000000     0.132220000000     0.0840578  
H377     H      0.769710000000     0.093510000000     0.150050000000     0.100914   
H378     H      0.174540000000     0.866740000000     0.688650000000     0.021091   
H379     H      0.198300000000     0.820440000000     0.394810000000     0.0185827  
H380     H      0.200360000000     0.880130000000     0.574400000000     0.035418   
H381     H      0.168310000000     0.801810000000     0.508450000000     0.0355649  
H382     H      0.202200000000     0.822240000000     0.458120000000     0.0547597  
H383     H      0.169140000000     0.801070000000     0.572480000000     0.0359995  
H384     H      0.162160000000     0.861190000000     0.463670000000     0.064427   
H385     H      0.176910000000     0.869620000000     0.625280000000     0.0504999  
H386     H      0.193170000000     0.810320000000     0.622650000000     0.0503015  
H387     H      0.198140000000     0.880390000000     0.510260000000     0.0346254  
H388     H      0.189220000000     0.807050000000     0.685990000000     0.0194728  
H389     H      0.152120000000     0.873940000000     0.410910000000     0.0842305  
H390     H      0.161040000000     0.869110000000     0.369020000000     0.100961   
H391     H      0.116550000000     0.807940000000     0.191450000000     0.0196111  
H392     H      0.161060000000     0.851000000000     0.901950000000     0.0193925  
H393     H      0.130180000000     0.829590000000     0.077070000000     0.0360793  
H394     H      0.156730000000     0.780210000000     0.007040000000     0.0345351  
H395     H      0.157740000000     0.847290000000     0.964960000000     0.0543451  
H396     H      0.156510000000     0.777810000000     0.071080000000     0.0356538  
H397     H      0.129580000000     0.769430000000     0.956500000000     0.0635154  
H398     H      0.111350000000     0.804110000000     0.128080000000     0.0503151  
H399     H      0.179730000000     0.803580000000     0.119480000000     0.0513066  
H400     H      0.129270000000     0.831080000000     0.013090000000     0.0341316  
H401     H      0.184060000000     0.806800000000     0.182750000000     0.0213565  
H402     H      0.120280000000     0.751300000000     0.900520000000     0.0837849  
H403     H      0.123000000000     0.767860000000     0.861700000000     0.10109    
H404     H      0.425000000000     0.922150000000     0.936210000000     0.0209611  
H405     H      0.233170000000     0.892830000000     0.836380000000     0.0198178  
H406     H      0.341800000000     0.886730000000     0.925530000000     0.0357227  
H407     H      0.318510000000     0.933380000000     0.843630000000     0.0351697  
H408     H      0.273410000000     0.914040000000     0.863200000000     0.0548505  
H409     H      0.359510000000     0.953690000000     0.869620000000     0.0362803  
H410     H      0.285790000000     0.855110000000     0.833540000000     0.0644732  
H411     H      0.383450000000     0.901730000000     0.913540000000     0.0505081  
H412     H      0.382790000000     0.970110000000     0.920820000000     0.0509992  
H413     H      0.301180000000     0.866270000000     0.898160000000     0.0353467  
H414     H      0.424800000000     0.990210000000     0.941840000000     0.0211812  
H415     H      0.258000000000     0.824910000000     0.794810000000     0.083748   
H416     H      0.232790000000     0.825810000000     0.776040000000     0.101118   
H417     H      0.821070000000     0.694220000000     0.736710000000     0.0190133  
H418     H      0.793990000000     0.623880000000     0.030800000000     0.0187673  
H419     H      0.793140000000     0.681000000000     0.849960000000     0.0352716  
H420     H      0.824870000000     0.634910000000     0.917510000000     0.03542    
H421     H      0.790830000000     0.621450000000     0.967380000000     0.0548058  
H422     H      0.824810000000     0.633500000000     0.853470000000     0.03595    
H423     H      0.829940000000     0.700300000000     0.960960000000     0.0643242  
H424     H      0.817830000000     0.694440000000     0.800010000000     0.0501135  
H425     H      0.801120000000     0.618780000000     0.802750000000     0.0503168  
H426     H      0.794510000000     0.683290000000     0.914110000000     0.0344968  
H427     H      0.805860000000     0.619700000000     0.739540000000     0.0194841  
H428     H      0.838990000000     0.723280000000     0.013250000000     0.0832195  
H429     H      0.829610000000     0.709750000000     0.055170000000     0.0965832  
H430     H      0.847140000000     0.699520000000     0.524960000000     0.0212548  
H431     H      0.874630000000     0.686040000000     0.232120000000     0.0191541  
H432     H      0.877970000000     0.702720000000     0.413240000000     0.0360389  
H433     H      0.823830000000     0.622880000000     0.354570000000     0.0345895  
H434     H      0.882500000000     0.685920000000     0.294390000000     0.0542475  
H435     H      0.826550000000     0.624600000000     0.418520000000     0.036136   
H436     H      0.805210000000     0.638210000000     0.312640000000     0.0644599  
H437     H      0.851590000000     0.699480000000     0.461730000000     0.0513124  
H438     H      0.852250000000     0.631160000000     0.469300000000     0.0510847  
H439     H      0.874430000000     0.701150000000     0.349230000000     0.0344999  
H440     H      0.847210000000     0.631430000000     0.532490000000     0.0211586  
H441     H      0.777630000000     0.630070000000     0.266580000000     0.0840808  
H442     H      0.786650000000     0.644250000000     0.225130000000     0.101028   
H443     H      0.568900000000     0.501310000000     0.495590000000     0.0200501  
H444     H      0.762720000000     0.662090000000     0.590120000000     0.0199608  
H445     H      0.652170000000     0.548900000000     0.502480000000     0.0351921  
H446     H      0.677290000000     0.617850000000     0.586560000000     0.0350778  
H447     H      0.722180000000     0.643540000000     0.564440000000     0.0547968  
H448     H      0.635760000000     0.597620000000     0.562370000000     0.0361928  
H449     H      0.709590000000     0.571960000000     0.592820000000     0.0642449  
H450     H      0.610960000000     0.522250000000     0.516040000000     0.0500292  
H451     H      0.611100000000     0.591170000000     0.512920000000     0.0508936  
H452     H      0.693320000000     0.568560000000     0.528150000000     0.035069   
H453     H      0.568530000000     0.569360000000     0.494170000000     0.0211444  
H454     H      0.737670000000     0.569050000000     0.630430000000     0.083517   
H455     H      0.763100000000     0.594860000000     0.649150000000     0.101084   
H456     H      0.091480000000     0.820560000000     0.768620000000     0.0209478  
H457     H      0.903300000000     0.663460000000     0.650490000000     0.0194576  
H458     H      0.027660000000     0.783980000000     0.692620000000     0.0365786  
H459     H      0.970170000000     0.696890000000     0.724090000000     0.0342844  
H460     H      0.946010000000     0.682680000000     0.667850000000     0.0550163  
H461     H      0.012070000000     0.717190000000     0.747110000000     0.0363701  
H462     H      0.944230000000     0.747580000000     0.698750000000     0.0645311  
H463     H      0.049780000000     0.799650000000     0.746330000000     0.0503621  
H464     H      0.054410000000     0.733830000000     0.731880000000     0.0505176  
H465     H      0.985580000000     0.763750000000     0.670300000000     0.0343299  
H466     H      0.095850000000     0.755070000000     0.755370000000     0.0201495  
H467     H      0.906520000000     0.746470000000     0.700590000000     0.0838897  
H468     H      0.878270000000     0.719620000000     0.692820000000     0.100999   
N1       N      0.790940000000     0.087650000000     0.655260000000    -0.226084   
N2       N      0.695210000000     0.895780000000     0.777320000000    -0.208569   
N3       N      0.750900000000     0.078490000000     0.634490000000    -0.2193     
N4       N      0.958700000000     0.421690000000     0.488510000000    -0.225623   
N5       N      0.860810000000     0.226470000000     0.600020000000    -0.208392   
N6       N      0.919990000000     0.412280000000     0.462040000000    -0.219218   
N7       N      0.127480000000     0.753320000000     0.318750000000    -0.226085   
N8       N      0.028660000000     0.562390000000     0.443940000000    -0.207614   
N9       N      0.087690000000     0.745450000000     0.298860000000    -0.219278   
N10      N      0.625290000000     0.754940000000     0.820670000000    -0.226112   
N11      N      0.525450000000     0.561830000000     0.939050000000    -0.208496   
N12      N      0.586060000000     0.746150000000     0.796910000000    -0.219075   
N13      N      0.295580000000     0.090150000000     0.163500000000    -0.225521   
N14      N      0.199130000000     0.892180000000     0.264150000000    -0.208847   
N15      N      0.332590000000     0.095480000000     0.191490000000    -0.21918    
N16      N      0.452520000000     0.425120000000     0.003310000000    -0.226278   
N17      N      0.354220000000     0.226990000000     0.101000000000    -0.208329   
N18      N      0.488110000000     0.426270000000     0.029720000000    -0.21948    
N19      N      0.660240000000     0.813300000000     0.398930000000    -0.227023   
N20      N      0.657580000000     0.813880000000     0.698700000000    -0.209175   
N21      N      0.704390000000     0.832480000000     0.400950000000    -0.220092   
N22      N      0.650370000000     0.837970000000     0.199190000000    -0.226496   
N23      N      0.662860000000     0.837360000000     0.901340000000    -0.209008   
N24      N      0.606830000000     0.809810000000     0.193090000000    -0.218556   
N25      N      0.788450000000     0.695780000000     0.154480000000    -0.226385   
N26      N      0.690170000000     0.791200000000     0.270990000000    -0.2091     
N27      N      0.817690000000     0.735100000000     0.129700000000    -0.218692   
N28      N      0.620320000000     0.860430000000     0.325370000000    -0.226224   
N29      N      0.522960000000     0.956360000000     0.443100000000    -0.208721   
N30      N      0.581400000000     0.831230000000     0.299440000000    -0.218559   
N31      N      0.990650000000     0.511720000000     0.868030000000    -0.226484   
N32      N      0.994550000000     0.504780000000     0.568560000000    -0.20808    
N33      N      0.946620000000     0.493360000000     0.866500000000    -0.220061   
N34      N      0.001420000000     0.485430000000     0.066750000000    -0.228317   
N35      N      0.992630000000     0.480280000000     0.366420000000    -0.208144   
N36      N      0.977260000000     0.441280000000     0.062890000000    -0.219548   
N37      N      0.961710000000     0.534070000000     0.996240000000    -0.226241   
N38      N      0.862600000000     0.628790000000     0.112460000000    -0.208456   
N39      N      0.992670000000     0.574030000000     0.975540000000    -0.21832    
N40      N      0.325620000000     0.145950000000     0.731040000000    -0.226147   
N41      N      0.320770000000     0.142460000000     0.031140000000    -0.208152   
N42      N      0.369610000000     0.163930000000     0.734820000000    -0.21989    
N43      N      0.322270000000     0.175460000000     0.531480000000    -0.226314   
N44      N      0.328450000000     0.174460000000     0.231390000000    -0.208498   
N45      N      0.278510000000     0.158970000000     0.527880000000    -0.219436   
N46      N      0.450580000000     0.024720000000     0.487320000000    -0.226521   
N47      N      0.355870000000     0.123660000000     0.603700000000    -0.208962   
N48      N      0.411040000000     0.992440000000     0.467460000000    -0.219222   
N49      N      0.125700000000     0.366610000000     0.818950000000    -0.225986   
N50      N      0.029350000000     0.463530000000     0.937300000000    -0.208157   
N51      N      0.155300000000     0.405780000000     0.794180000000    -0.219183   
N52      N      0.291500000000     0.198500000000     0.656770000000    -0.225958   
N53      N      0.197710000000     0.297730000000     0.775090000000    -0.208721   
N54      N      0.252080000000     0.170310000000     0.631070000000    -0.218628   
N55      N      0.475100000000     0.474930000000     0.870840000000    -0.226603   
N56      N      0.482200000000     0.485750000000     0.571170000000    -0.20859    
N57      N      0.492830000000     0.448680000000     0.869390000000    -0.219894   
N58      N      0.509200000000     0.510610000000     0.369690000000    -0.226382   
N59      N      0.501710000000     0.510350000000     0.069820000000    -0.208745   
N60      N      0.534680000000     0.492040000000     0.364990000000    -0.219989   
N61      N      0.835150000000     0.173340000000     0.026850000000    -0.227331   
N62      N      0.835920000000     0.173730000000     0.727970000000    -0.20911    
N63      N      0.806970000000     0.189010000000     0.026040000000    -0.220259   
N64      N      0.826410000000     0.154260000000     0.230760000000    -0.227249   
N65      N      0.815660000000     0.140720000000     0.527890000000    -0.209265   
N66      N      0.846500000000     0.197540000000     0.244270000000    -0.219861   
N67      N      0.144110000000     0.329250000000     0.396850000000    -0.226603   
N68      N      0.151630000000     0.333910000000     0.696720000000    -0.208966   
N69      N      0.119460000000     0.285120000000     0.399260000000    -0.219833   
N70      N      0.182210000000     0.339940000000     0.198670000000    -0.226357   
N71      N      0.172810000000     0.330530000000     0.899070000000    -0.20865    
N72      N      0.200580000000     0.314210000000     0.201470000000    -0.219546   
N73      N      0.902580000000     0.203120000000     0.142840000000    -0.226381   
N74      N      0.094700000000     0.301450000000     0.265140000000    -0.208477   
N75      N      0.907650000000     0.242230000000     0.125000000000    -0.219529   
N76      N      0.424750000000     0.461780000000     0.448590000000    -0.225628   
N77      N      0.231440000000     0.367150000000     0.329900000000    -0.208626   
N78      N      0.415020000000     0.490580000000     0.475870000000    -0.219044   
N79      N      0.512960000000     0.995910000000     0.866630000000    -0.226688   
N80      N      0.498940000000     0.990130000000     0.567220000000    -0.208607   
N81      N      0.538260000000     0.039930000000     0.864190000000    -0.219906   
N82      N      0.484010000000     0.987880000000     0.068030000000    -0.226132   
N83      N      0.475120000000     0.991250000000     0.365280000000    -0.20883    
N84      N      0.504900000000     0.965300000000     0.081330000000    -0.219784   
N85      N      0.759910000000     0.124980000000     0.114800000000    -0.226236   
N86      N      0.567040000000     0.025480000000     0.994830000000    -0.208823   
N87      N      0.754860000000     0.085890000000     0.132670000000    -0.219205   
N88      N      0.177450000000     0.839170000000     0.392040000000    -0.226507   
N89      N      0.181190000000     0.836360000000     0.692000000000    -0.208671   
N90      N      0.159240000000     0.865000000000     0.395810000000    -0.219951   
N91      N      0.147990000000     0.812660000000     0.892070000000    -0.226122   
N92      N      0.150860000000     0.808050000000     0.191810000000    -0.208753   
N93      N      0.127270000000     0.768450000000     0.888320000000    -0.21955    
N94      N      0.235620000000     0.861380000000     0.819360000000    -0.225786   
N95      N      0.428140000000     0.957760000000     0.940310000000    -0.208405   
N96      N      0.246270000000     0.832280000000     0.795530000000    -0.219054   
N97      N      0.814230000000     0.663420000000     0.033110000000    -0.226709   
N98      N      0.814180000000     0.657120000000     0.733480000000    -0.20948    
N99      N      0.831880000000     0.707340000000     0.028600000000    -0.219584   
N100     N      0.835460000000     0.662190000000     0.235850000000    -0.226348   
N101     N      0.846340000000     0.665250000000     0.533390000000    -0.208684   
N102     N      0.792000000000     0.639970000000     0.248840000000    -0.219582   
N103     N      0.760200000000     0.628020000000     0.606580000000    -0.225791   
N104     N      0.565450000000     0.533700000000     0.493780000000    -0.208672   
N105     N      0.749490000000     0.588100000000     0.629830000000    -0.219092   
N106     N      0.898600000000     0.694090000000     0.664550000000    -0.225967   
N107     N      0.096870000000     0.789470000000     0.763410000000    -0.208628   
N108     N      0.897340000000     0.728680000000     0.690160000000    -0.219341   
O1       O      0.819820000000     0.640300000000     0.683030000000    -0.560829   
O2       O      0.838320000000     0.645590000000     0.586950000000    -0.557319   
O3       O      0.862710000000     0.659060000000     0.648750000000    -0.55789    
O4       O      0.795440000000     0.626970000000     0.621460000000    -0.559342   
O5       O      0.796860000000     0.663100000000     0.619570000000    -0.55983    
O6       O      0.864530000000     0.695320000000     0.644180000000    -0.561276   
O7       O      0.839130000000     0.681470000000     0.583300000000    -0.557472   
O8       O      0.822510000000     0.677080000000     0.680130000000    -0.561595   
O9       O      0.173330000000     0.848390000000     0.745360000000    -0.557829   
O10      O      0.156770000000     0.836560000000     0.842240000000    -0.559694   
O11      O      0.199110000000     0.860140000000     0.805950000000    -0.5585     
O12      O      0.131310000000     0.824940000000     0.781590000000    -0.557824   
O13      O      0.133060000000     0.790370000000     0.777420000000    -0.559237   
O14      O      0.200360000000     0.825330000000     0.804310000000    -0.559186   
O15      O      0.157460000000     0.801470000000     0.839030000000    -0.55847    
O16      O      0.175860000000     0.814190000000     0.742760000000    -0.558842   
O17      O      0.505140000000     0.975980000000     0.919910000000    -0.560441   
O18      O      0.489180000000     0.971120000000     0.016960000000    -0.560743   
O19      O      0.463200000000     0.957060000000     0.956430000000    -0.556331   
O20      O      0.531120000000     0.990060000000     0.980450000000    -0.559322   
O21      O      0.532140000000     0.026070000000     0.977620000000    -0.560619   
O22      O      0.464260000000     0.993100000000     0.953910000000    -0.556553   
O23      O      0.490210000000     0.007100000000     0.014310000000    -0.558589   
O24      O      0.506440000000     0.012110000000     0.917190000000    -0.558905   
O25      O      0.152070000000     0.313210000000     0.347250000000    -0.557764   
O26      O      0.172210000000     0.319180000000     0.251700000000    -0.558278   
O27      O      0.195630000000     0.332170000000     0.314040000000    -0.557789   
O28      O      0.128790000000     0.300180000000     0.284800000000    -0.558683   
O29      O      0.130480000000     0.336480000000     0.281060000000    -0.557491   
O30      O      0.197170000000     0.368430000000     0.311130000000    -0.558287   
O31      O      0.174040000000     0.355500000000     0.248500000000    -0.56133    
O32      O      0.153740000000     0.349480000000     0.343700000000    -0.561601   
O33      O      0.826850000000     0.175790000000     0.181420000000    -0.562444   
O34      O      0.832550000000     0.185950000000     0.082770000000    -0.564639   
O35      O      0.795040000000     0.161680000000     0.127170000000    -0.561813   
O36      O      0.864460000000     0.200040000000     0.137110000000    -0.562394   
O37      O      0.867410000000     0.166320000000     0.130930000000    -0.559271   
O38      O      0.798060000000     0.128070000000     0.119920000000    -0.559344   
O39      O      0.836100000000     0.152550000000     0.076110000000    -0.559088   
O40      O      0.829390000000     0.141830000000     0.174850000000    -0.561054   
O41      O      0.487480000000     0.508970000000     0.521530000000    -0.559021   
O42      O      0.501580000000     0.521490000000     0.424060000000    -0.55889    
O43      O      0.460450000000     0.497720000000     0.462400000000    -0.560401   
O44      O      0.528840000000     0.532810000000     0.483070000000    -0.55678    
O45      O      0.530200000000     0.498070000000     0.478370000000    -0.560287   
O46      O      0.461800000000     0.463060000000     0.457670000000    -0.557114   
O47      O      0.503230000000     0.486940000000     0.419140000000    -0.558245   
O48      O      0.489130000000     0.474390000000     0.516670000000    -0.55717    
O49      O      0.149870000000     0.313230000000     0.848970000000    -0.556841   
O50      O      0.139300000000     0.315170000000     0.750820000000    -0.558173   
O51      O      0.162120000000     0.297490000000     0.790480000000    -0.558888   
O52      O      0.126940000000     0.330980000000     0.808990000000    -0.560071   
O53      O      0.161850000000     0.366850000000     0.806130000000    -0.560349   
O54      O      0.196980000000     0.333460000000     0.786000000000    -0.557039   
O55      O      0.173780000000     0.351530000000     0.747170000000    -0.560344   
O56      O      0.185060000000     0.348900000000     0.844790000000    -0.558503   
O57      O      0.343160000000     0.170490000000     0.682320000000    -0.557973   
O58      O      0.341330000000     0.185020000000     0.585610000000    -0.557748   
O59      O      0.326500000000     0.196120000000     0.645880000000    -0.557059   
O60      O      0.357800000000     0.159550000000     0.621940000000    -0.559805   
O61      O      0.321040000000     0.125810000000     0.615910000000    -0.558539   
O62      O      0.289950000000     0.162150000000     0.641470000000    -0.564032   
O63      O      0.304310000000     0.151570000000     0.580580000000    -0.560795   
O64      O      0.306590000000     0.136510000000     0.676890000000    -0.558448   
O65      O      0.010970000000     0.522730000000     0.921120000000    -0.564322   
O66      O      0.016590000000     0.509460000000     0.017090000000    -0.56113    
O67      O      0.030130000000     0.498950000000     0.955250000000    -0.557573   
O68      O      0.997290000000     0.533330000000     0.982850000000    -0.55837    
O69      O      0.961300000000     0.498560000000     0.979570000000    -0.56207    
O70      O      0.994050000000     0.464110000000     0.952100000000    -0.557766   
O71      O      0.980590000000     0.474660000000     0.013820000000    -0.560464   
O72      O      0.974760000000     0.488090000000     0.917890000000    -0.559827   
O73      O      0.670270000000     0.849650000000     0.252740000000    -0.559823   
O74      O      0.676130000000     0.836820000000     0.348910000000    -0.559098   
O75      O      0.690190000000     0.826530000000     0.287360000000    -0.559853   
O76      O      0.656230000000     0.860000000000     0.313910000000    -0.558992   
O77      O      0.620580000000     0.824970000000     0.309850000000    -0.563417   
O78      O      0.654530000000     0.791180000000     0.285340000000    -0.559053   
O79      O      0.640000000000     0.802080000000     0.345850000000    -0.561474   
O80      O      0.635110000000     0.814090000000     0.249190000000    -0.563465   
O81      O      0.803130000000     0.644610000000     0.087230000000    -0.561579   
O82      O      0.813680000000     0.643690000000     0.185340000000    -0.561939   
O83      O      0.790320000000     0.660450000000     0.144740000000    -0.562939   
O84      O      0.826610000000     0.627860000000     0.127660000000    -0.557845   
O85      O      0.860960000000     0.664170000000     0.122240000000    -0.556543   
O86      O      0.824880000000     0.696620000000     0.141800000000    -0.562231   
O87      O      0.848560000000     0.679560000000     0.181030000000    -0.557291   
O88      O      0.837080000000     0.681320000000     0.083120000000    -0.559859   
O89      O      0.463380000000     0.973230000000     0.419960000000    -0.559466   
O90      O      0.476030000000     0.971740000000     0.517520000000    -0.556214   
O91      O      0.452060000000     0.989060000000     0.478960000000    -0.560818   
O92      O      0.487260000000     0.955940000000     0.458320000000    -0.559636   
O93      O      0.522080000000     0.991980000000     0.454450000000    -0.557094   
O94      O      0.486490000000     0.025130000000     0.473000000000    -0.560066   
O95      O      0.510190000000     0.008270000000     0.512660000000    -0.559351   
O96      O      0.498370000000     0.009010000000     0.414850000000    -0.558941   
O97      O      0.341220000000     0.151830000000     0.084280000000    -0.554852   
O98      O      0.345740000000     0.169240000000     0.180970000000    -0.558082   
O99      O      0.329180000000     0.126870000000     0.145780000000    -0.560034   
O100     O      0.357710000000     0.193980000000     0.119610000000    -0.55897    
O101     O      0.320330000000     0.189890000000     0.115870000000    -0.555489   
O102     O      0.291970000000     0.123060000000     0.144140000000    -0.559311   
O103     O      0.308550000000     0.165650000000     0.177950000000    -0.558003   
O104     O      0.303510000000     0.147020000000     0.081950000000    -0.557296   
O105     O      0.464600000000     0.484780000000     0.923960000000    -0.558816   
O106     O      0.478820000000     0.504380000000     0.019630000000    -0.556849   
O107     O      0.489550000000     0.527880000000     0.957230000000    -0.557521   
O108     O      0.453810000000     0.461090000000     0.986490000000    -0.557677   
O109     O      0.487960000000     0.458630000000     0.982590000000    -0.564067   
O110     O      0.523870000000     0.525550000000     0.954490000000    -0.556696   
O111     O      0.512750000000     0.501370000000     0.016470000000    -0.560178   
O112     O      0.498830000000     0.482380000000     0.920550000000    -0.558731   
O113     O      0.153470000000     0.832600000000     0.342690000000    -0.557599   
O114     O      0.139380000000     0.815210000000     0.246150000000    -0.55869    
O115     O      0.128870000000     0.790090000000     0.307150000000    -0.560166   
O116     O      0.163720000000     0.857490000000     0.281580000000    -0.561646   
O117     O      0.198500000000     0.856070000000     0.277900000000    -0.555957   
O118     O      0.163210000000     0.788130000000     0.301720000000    -0.558376   
O119     O      0.174250000000     0.814070000000     0.241430000000    -0.558967   
O120     O      0.187580000000     0.830090000000     0.338160000000    -0.560879   
O121     O      0.010710000000     0.486110000000     0.421010000000    -0.558401   
O122     O      0.012380000000     0.499530000000     0.518810000000    -0.558325   
O123     O      0.994540000000     0.458510000000     0.479560000000    -0.557683   
O124     O      0.028530000000     0.526980000000     0.460100000000    -0.557516   
O125     O      0.992690000000     0.526210000000     0.455210000000    -0.554137   
O126     O      0.958740000000     0.457670000000     0.475020000000    -0.559643   
O127     O      0.976410000000     0.498480000000     0.514030000000    -0.558479   
O128     O      0.974840000000     0.485290000000     0.416340000000    -0.561148   
O129     O      0.802710000000     0.148280000000     0.580620000000    -0.562      
O130     O      0.813800000000     0.166730000000     0.676810000000    -0.558765   
O131     O      0.825200000000     0.191110000000     0.615290000000    -0.557812   
O132     O      0.791320000000     0.123800000000     0.642070000000    -0.560228   
O133     O      0.826380000000     0.123010000000     0.639190000000    -0.559678   
O134     O      0.860640000000     0.190820000000     0.615160000000    -0.556847   
O135     O      0.848530000000     0.165090000000     0.675700000000    -0.558313   
O136     O      0.838430000000     0.148610000000     0.578670000000    -0.558359   
O137     O      0.676910000000     0.820150000000     0.752320000000    -0.558337   
O138     O      0.679480000000     0.831610000000     0.850720000000    -0.558245   
O139     O      0.661120000000     0.791450000000     0.810000000000    -0.559073   
O140     O      0.695230000000     0.860300000000     0.792860000000    -0.557274   
O141     O      0.659370000000     0.859480000000     0.788090000000    -0.558451   
O142     O      0.625510000000     0.791180000000     0.808920000000    -0.560953   
O143     O      0.644410000000     0.832490000000     0.847340000000    -0.558722   
O144     O      0.640420000000     0.818190000000     0.749760000000    -0.561171   
V1       V      0.829020000000     0.641540000000     0.635120000000     1.39272    
V2       V      0.830820000000     0.680680000000     0.631580000000     1.39648    
V3       V      0.165110000000     0.843900000000     0.793960000000     1.3954     
V4       V      0.166770000000     0.806480000000     0.790800000000     1.3905     
V5       V      0.497100000000     0.972120000000     0.968530000000     1.39385    
V6       V      0.498270000000     0.011010000000     0.965610000000     1.39291    
V7       V      0.162110000000     0.314750000000     0.299610000000     1.38802    
V8       V      0.163910000000     0.353900000000     0.295960000000     1.39979    
V9       V      0.829630000000     0.182200000000     0.132380000000     1.39726    
V10      V      0.832860000000     0.145850000000     0.125190000000     1.39234    
V11      V      0.494540000000     0.516620000000     0.472960000000     1.39388    
V12      V      0.496120000000     0.479230000000     0.467710000000     1.39093    
V13      V      0.143170000000     0.312800000000     0.800030000000     1.39554    
V14      V      0.180800000000     0.351610000000     0.795870000000     1.39523    
V15      V      0.343640000000     0.179150000000     0.634210000000     1.38879    
V16      V      0.304040000000     0.142670000000     0.628520000000     1.39703    
V17      V      0.015170000000     0.517510000000     0.969250000000     1.39139    
V18      V      0.976250000000     0.479980000000     0.965730000000     1.3956     
V19      V      0.674640000000     0.844650000000     0.300920000000     1.39191    
V20      V      0.636150000000     0.806690000000     0.297430000000     1.40053    
V21      V      0.807100000000     0.642700000000     0.136430000000     1.39914    
V22      V      0.844270000000     0.681830000000     0.131880000000     1.39005    
V23      V      0.468310000000     0.971060000000     0.468940000000     1.39517    
V24      V      0.505670000000     0.010020000000     0.463560000000     1.39678    
V25      V      0.344930000000     0.160620000000     0.132750000000     1.39098    
V26      V      0.304620000000     0.156250000000     0.129830000000     1.39402    
V27      V      0.470330000000     0.494620000000     0.971940000000     1.39244    
V28      V      0.507220000000     0.491920000000     0.968330000000     1.39435    
V29      V      0.144980000000     0.823890000000     0.294630000000     1.39264    
V30      V      0.182250000000     0.822010000000     0.289630000000     1.39531    
V31      V      0.012950000000     0.492810000000     0.470110000000     1.39091    
V32      V      0.974260000000     0.491890000000     0.465000000000     1.39593    
V33      V      0.806860000000     0.157490000000     0.628790000000     1.39724    
V34      V      0.844900000000     0.156870000000     0.627120000000     1.39557    
V35      V      0.679620000000     0.825910000000     0.801630000000     1.3945     
V36      V      0.641010000000     0.825320000000     0.798440000000     1.39762    


