data_structure

_audit_creation_method RASPA-1.0
_audit_creation_date 2023-5-19
_audit_author_name 'Poobodin Mano'

_cell_length_a    38.5135
_cell_length_b    38.4994
_cell_length_c    38.5165
_cell_angle_alpha 90
_cell_angle_beta  90
_cell_angle_gamma 90
_cell_volume      57110.2

_symmetry_cell_setting          triclinic
_symmetry_space_group_name_Hall 'P 1'
_symmetry_space_group_name_H-M  'P 1'
_symmetry_Int_Tables_number     1

_symmetry_equiv_pos_as_xyz 'x,y,z'

loop_
_atom_site_label
_atom_site_type_symbol
_atom_site_fract_x
_atom_site_fract_y
_atom_site_fract_z
_atom_site_charge
C1       C      0.993060000000     0.067750000000     0.504460000000     0.47912    
C2       C      0.991990000000     0.935840000000     0.502920000000     0.47877    
C3       C      0.926420000000     0.002450000000     0.504140000000     0.479348   
C4       C      0.058260000000     0.001270000000     0.503250000000     0.479399   
C5       C      0.010760000000     0.435700000000     0.505920000000     0.482412   
C6       C      0.010310000000     0.567900000000     0.501490000000     0.482008   
C7       C      0.010500000000     0.499480000000     0.437640000000     0.482355   
C8       C      0.010700000000     0.504020000000     0.569790000000     0.481996   
C9       C      0.558300000000     0.007200000000     0.506000000000     0.48269    
C10      C      0.426380000000     0.999980000000     0.502070000000     0.482561   
C11      C      0.494090000000     0.002070000000     0.438130000000     0.478908   
C12      C      0.490450000000     0.005300000000     0.570070000000     0.482599   
C13      C      0.498810000000     0.931680000000     0.003680000000     0.479147   
C14      C      0.499170000000     0.063590000000     0.004030000000     0.479148   
C15      C      0.501520000000     0.997270000000     0.070020000000     0.482907   
C16      C      0.496680000000     0.997830000000     0.938090000000     0.478877   
C17      C      0.996240000000     0.498770000000     0.069660000000     0.478778   
C18      C      0.996460000000     0.500540000000     0.937800000000     0.47863    
C19      C      0.062230000000     0.499520000000     0.003710000000     0.478794   
C20      C      0.930340000000     0.499700000000     0.003500000000     0.478765   
C21      C      0.495700000000     0.563760000000     0.986970000000     0.482302   
C22      C      0.496400000000     0.431520000000     0.986790000000     0.482609   
C23      C      0.430180000000     0.497670000000     0.986940000000     0.481723   
C24      C      0.562420000000     0.498230000000     0.986820000000     0.482307   
C25      C      0.654970000000     0.502060000000     0.959640000000    -0.133128   
C26      C      0.876630000000     0.468970000000     0.002490000000     0.0763563  
C27      C      0.876690000000     0.530540000000     0.002590000000     0.0763446  
C28      C      0.840380000000     0.468530000000     0.001370000000    -0.0978066  
C29      C      0.763630000000     0.476240000000     0.018490000000    -0.0380477  
C30      C      0.727390000000     0.476080000000     0.016370000000    -0.0336292  
C31      C      0.783280000000     0.499820000000     0.998700000000    -0.00764741 
C32      C      0.840440000000     0.531030000000     0.001370000000    -0.0977833  
C33      C      0.709990000000     0.499400000000     0.994320000000    -0.0153679  
C34      C      0.650980000000     0.495860000000     0.021410000000    -0.107627   
C35      C      0.729630000000     0.523030000000     0.974620000000    -0.0336241  
C36      C      0.614920000000     0.495820000000     0.018620000000     0.0786974  
C37      C      0.618470000000     0.502080000000     0.957200000000     0.150861   
C38      C      0.765840000000     0.523270000000     0.976820000000    -0.0380565  
C39      C      0.821820000000     0.499800000000     0.000630000000     0.0500632  
C40      C      0.671470000000     0.499030000000     0.991780000000     0.0654406  
C41      C      0.603330000000     0.506480000000     0.921140000000    -0.211176   
C42      C      0.337590000000     0.501340000000     0.959900000000    -0.132955   
C43      C      0.115980000000     0.530210000000     0.002980000000     0.0762491  
C44      C      0.115870000000     0.468640000000     0.002780000000     0.0762112  
C45      C      0.152230000000     0.530610000000     0.001810000000    -0.0978639  
C46      C      0.226800000000     0.522710000000     0.977250000000    -0.0381852  
C47      C      0.263010000000     0.522380000000     0.975030000000    -0.033722   
C48      C      0.209320000000     0.499250000000     0.999090000000    -0.00770353 
C49      C      0.152120000000     0.468100000000     0.001710000000    -0.0978044  
C50      C      0.282620000000     0.498640000000     0.994640000000    -0.0153872  
C51      C      0.341660000000     0.494890000000     0.021640000000    -0.107388   
C52      C      0.265170000000     0.475310000000     0.016640000000    -0.0337659  
C53      C      0.377730000000     0.494900000000     0.018800000000     0.0783871  
C54      C      0.374080000000     0.501410000000     0.957410000000     0.149634   
C55      C      0.228930000000     0.475560000000     0.018790000000    -0.0380709  
C56      C      0.170770000000     0.499320000000     0.001030000000     0.0499211  
C57      C      0.321130000000     0.498200000000     0.992040000000     0.0651101  
C58      C      0.389170000000     0.505990000000     0.921340000000    -0.209706   
C59      C      0.491880000000     0.656280000000     0.959850000000    -0.133143   
C60      C      0.529240000000     0.877790000000     0.001730000000     0.0758122  
C61      C      0.467710000000     0.878200000000     0.003690000000     0.0762565  
C62      C      0.529410000000     0.841520000000     0.000530000000    -0.098038   
C63      C      0.521620000000     0.764650000000     0.017530000000    -0.037995   
C64      C      0.521220000000     0.728400000000     0.015430000000    -0.0337817  
C65      C      0.497610000000     0.784620000000     0.998610000000    -0.00780706 
C66      C      0.466960000000     0.841970000000     0.002440000000    -0.0979812  
C67      C      0.496880000000     0.711310000000     0.994250000000    -0.0153914  
C68      C      0.500430000000     0.652300000000     0.021360000000    -0.107528   
C69      C      0.472870000000     0.731280000000     0.975370000000    -0.0336451  
C70      C      0.499740000000     0.616230000000     0.018660000000     0.0786479  
C71      C      0.490990000000     0.619790000000     0.957530000000     0.150235   
C72      C      0.473210000000     0.767490000000     0.977530000000    -0.0381046  
C73      C      0.498020000000     0.823150000000     0.000680000000     0.0499749  
C74      C      0.496520000000     0.672790000000     0.991800000000     0.0652879  
C75      C      0.484250000000     0.604630000000     0.921840000000    -0.210245   
C76      C      0.493810000000     0.338950000000     0.959520000000    -0.13315    
C77      C      0.468330000000     0.117220000000     0.003850000000     0.0763322  
C78      C      0.529860000000     0.117340000000     0.002290000000     0.0759523  
C79      C      0.467750000000     0.153450000000     0.002490000000    -0.0980928  
C80      C      0.474610000000     0.227760000000     0.977140000000    -0.0380988  
C81      C      0.474380000000     0.263960000000     0.974850000000    -0.0337575  
C82      C      0.498670000000     0.210650000000     0.998620000000    -0.00777971 
C83      C      0.530210000000     0.153610000000     0.001000000000    -0.0979572  
C84      C      0.498160000000     0.283930000000     0.994040000000    -0.0153819  
C85      C      0.501120000000     0.342950000000     0.021180000000    -0.107547   
C86      C      0.522170000000     0.266860000000     0.015600000000    -0.033765   
C87      C      0.500320000000     0.379030000000     0.018470000000     0.0785987  
C88      C      0.492900000000     0.375450000000     0.957170000000     0.150854   
C89      C      0.522480000000     0.230600000000     0.017800000000    -0.0381061  
C90      C      0.498900000000     0.172120000000     0.000860000000     0.0499707  
C91      C      0.497830000000     0.322450000000     0.991560000000     0.0653374  
C92      C      0.487210000000     0.390580000000     0.921290000000    -0.211093   
C93      C      0.486490000000     0.034670000000     0.661930000000    -0.133241   
C94      C      0.525610000000     0.997870000000     0.883420000000     0.0764412  
C95      C      0.464090000000     0.998310000000     0.885490000000     0.0762028  
C96      C      0.524870000000     0.998140000000     0.847180000000    -0.0980421  
C97      C      0.514730000000     0.978770000000     0.771410000000    -0.0380317  
C98      C      0.513920000000     0.979780000000     0.735160000000    -0.0336713  
C99      C      0.491800000000     0.999270000000     0.791080000000    -0.00782966 
C100     C      0.462420000000     0.998670000000     0.849260000000    -0.0979072  
C101     C      0.490210000000     0.001390000000     0.717730000000    -0.0155649  
C102     C      0.492790000000     0.972810000000     0.659400000000    -0.107671   
C103     C      0.467150000000     0.021750000000     0.737400000000    -0.033735   
C104     C      0.492640000000     0.974730000000     0.623290000000     0.0784158  
C105     C      0.486290000000     0.036240000000     0.625400000000     0.150596   
C106     C      0.467910000000     0.020670000000     0.773650000000    -0.0381727  
C107     C      0.493030000000     0.998600000000     0.829640000000     0.050099   
C108     C      0.489780000000     0.002950000000     0.679180000000     0.0653065  
C109     C      0.482110000000     0.071990000000     0.609430000000    -0.211022   
C110     C      0.531930000000     0.995490000000     0.161630000000    -0.133276   
C111     C      0.496890000000     0.970140000000     0.385200000000     0.0756447  
C112     C      0.493590000000     0.031620000000     0.383790000000     0.0759494  
C113     C      0.497640000000     0.968900000000     0.348960000000    -0.0982509  
C114     C      0.519480000000     0.976130000000     0.273460000000    -0.0380897  
C115     C      0.520460000000     0.975630000000     0.237200000000    -0.033599   
C116     C      0.497080000000     0.998920000000     0.291100000000    -0.00788566 
C117     C      0.494230000000     0.031300000000     0.347550000000    -0.0982201  
C118     C      0.499030000000     0.997860000000     0.217730000000    -0.0153829  
C119     C      0.469860000000     0.999210000000     0.159670000000    -0.107474   
C120     C      0.476500000000     0.020530000000     0.235370000000    -0.0336186  
C121     C      0.471430000000     0.998920000000     0.123540000000     0.0790293  
C122     C      0.533150000000     0.995120000000     0.125080000000     0.151907   
C123     C      0.475560000000     0.021080000000     0.271630000000    -0.0379924  
C124     C      0.496280000000     0.999700000000     0.329670000000     0.0500256  
C125     C      0.500260000000     0.997520000000     0.179170000000     0.0656989  
C126     C      0.568870000000     0.992260000000     0.108790000000    -0.21255    
C127     C      0.038240000000     0.508150000000     0.662180000000    -0.133033   
C128     C      0.997280000000     0.532160000000     0.884630000000     0.0762985  
C129     C      0.997040000000     0.470600000000     0.883610000000     0.0762143  
C130     C      0.998230000000     0.533230000000     0.848410000000    -0.0978814  
C131     C      0.980460000000     0.479710000000     0.770790000000    -0.0380851  
C132     C      0.982240000000     0.480270000000     0.734540000000    -0.0337084  
C133     C      0.000320000000     0.502990000000     0.790720000000    -0.00769543 
C134     C      0.997920000000     0.470740000000     0.847350000000    -0.0977018  
C135     C      0.004000000000     0.504050000000     0.717380000000    -0.0153814  
C136     C      0.976520000000     0.501170000000     0.658490000000    -0.10746    
C137     C      0.023770000000     0.527390000000     0.737310000000    -0.0337547  
C138     C      0.979100000000     0.501530000000     0.622410000000     0.0785167  
C139     C      0.040440000000     0.508700000000     0.625680000000     0.15028    
C140     C      0.021940000000     0.526880000000     0.773530000000    -0.0381437  
C141     C      0.998680000000     0.502300000000     0.829280000000     0.0499073  
C142     C      0.006260000000     0.504400000000     0.678850000000     0.0651622  
C143     C      0.076290000000     0.514160000000     0.610360000000    -0.210604   
C144     C      0.037700000000     0.494410000000     0.345190000000    -0.133031   
C145     C      0.996920000000     0.467350000000     0.122980000000     0.0763055  
C146     C      0.996510000000     0.528910000000     0.123700000000     0.0764269  
C147     C      0.997710000000     0.466470000000     0.159230000000    -0.097761   
C148     C      0.979350000000     0.520470000000     0.236400000000    -0.0379006  
C149     C      0.981160000000     0.520410000000     0.272650000000    -0.0337018  
C150     C      0.999410000000     0.497110000000     0.216760000000    -0.00781455 
C151     C      0.997210000000     0.528970000000     0.159960000000    -0.097767   
C152     C      0.003160000000     0.497080000000     0.290090000000    -0.0152631  
C153     C      0.975920000000     0.500690000000     0.349050000000    -0.107409   
C154     C      0.023060000000     0.473590000000     0.270470000000    -0.0337237  
C155     C      0.978670000000     0.501000000000     0.385120000000     0.078485   
C156     C      0.040090000000     0.494590000000     0.381680000000     0.150478   
C157     C      0.021180000000     0.473580000000     0.234240000000    -0.0379455  
C158     C      0.997950000000     0.497510000000     0.178200000000     0.0500779  
C159     C      0.005600000000     0.497420000000     0.328610000000     0.0652305  
C160     C      0.076110000000     0.490060000000     0.396900000000    -0.210847   
C161     C      0.335480000000     0.967890000000     0.498040000000    -0.133568   
C162     C      0.112140000000     0.000780000000     0.533650000000     0.0765132  
C163     C      0.111710000000     0.001080000000     0.472100000000     0.0764279  
C164     C      0.148400000000     0.000590000000     0.533860000000    -0.0980683  
C165     C      0.224260000000     0.020860000000     0.525660000000    -0.0380048  
C166     C      0.260540000000     0.020550000000     0.525380000000    -0.0336776  
C167     C      0.205340000000     0.000250000000     0.502210000000    -0.00788037 
C168     C      0.147960000000     0.000810000000     0.471380000000    -0.0980447  
C169     C      0.278720000000     0.999520000000     0.501730000000    -0.0155366  
C170     C      0.336150000000     0.029800000000     0.504540000000    -0.108057   
C171     C      0.259800000000     0.978910000000     0.478280000000    -0.0336013  
C172     C      0.372300000000     0.028980000000     0.504270000000     0.0786961  
C173     C      0.372040000000     0.967470000000     0.497570000000     0.151969   
C174     C      0.223530000000     0.979300000000     0.478490000000    -0.0380456  
C175     C      0.166770000000     0.000580000000     0.502490000000     0.0502305  
C176     C      0.317290000000     0.999070000000     0.501500000000     0.065729   
C177     C      0.389130000000     0.932400000000     0.492260000000    -0.212656   
C178     C      0.649310000000     0.039010000000     0.510040000000    -0.133319   
C179     C      0.872550000000     0.003540000000     0.473730000000     0.076501   
C180     C      0.872970000000     0.003240000000     0.535280000000     0.076458   
C181     C      0.836300000000     0.004310000000     0.473510000000    -0.0979052  
C182     C      0.760140000000     0.985280000000     0.481640000000    -0.0378887  
C183     C      0.723870000000     0.986040000000     0.481970000000    -0.0335007  
C184     C      0.779350000000     0.005550000000     0.505150000000    -0.007753   
C185     C      0.836730000000     0.004080000000     0.535990000000    -0.0978408  
C186     C      0.705970000000     0.007150000000     0.505770000000    -0.015468   
C187     C      0.648410000000     0.977150000000     0.503100000000    -0.1078     
C188     C      0.725170000000     0.027490000000     0.529220000000    -0.0335279  
C189     C      0.612280000000     0.978080000000     0.503520000000     0.0792044  
C190     C      0.612730000000     0.039530000000     0.510690000000     0.151593   
C191     C      0.761440000000     0.026670000000     0.528940000000    -0.0380569  
C192     C      0.817920000000     0.004640000000     0.504880000000     0.0501911  
C193     C      0.667390000000     0.007800000000     0.506220000000     0.0656653  
C194     C      0.595740000000     0.074560000000     0.516470000000    -0.212052   
C195     C      0.037020000000     0.660600000000     0.497210000000    -0.133026   
C196     C      0.992960000000     0.882520000000     0.471500000000     0.0763844  
C197     C      0.992860000000     0.881760000000     0.533040000000     0.076329   
C198     C      0.994330000000     0.846290000000     0.470590000000    -0.0979014  
C199     C      0.019280000000     0.771740000000     0.477470000000    -0.0380262  
C200     C      0.021690000000     0.735520000000     0.477260000000    -0.0337147  
C201     C      0.997270000000     0.788760000000     0.501110000000    -0.00782751 
C202     C      0.994130000000     0.845500000000     0.533060000000    -0.0978214  
C203     C      0.002100000000     0.715470000000     0.500640000000    -0.0153393  
C204     C      0.975280000000     0.656310000000     0.503610000000    -0.107609   
C205     C      0.979960000000     0.732470000000     0.524170000000    -0.0337135  
C206     C      0.978230000000     0.620250000000     0.503500000000     0.0786384  
C207     C      0.039610000000     0.624090000000     0.496980000000     0.150335   
C208     C      0.977620000000     0.768700000000     0.524450000000    -0.0379679  
C209     C      0.995090000000     0.827300000000     0.501590000000     0.050111   
C210     C      0.004820000000     0.676950000000     0.500530000000     0.0652999  
C211     C      0.075680000000     0.609090000000     0.492190000000    -0.21084    
C212     C      0.038090000000     0.343170000000     0.509860000000    -0.133115   
C213     C      0.994920000000     0.121050000000     0.535860000000     0.0763581  
C214     C      0.994080000000     0.121800000000     0.474320000000     0.0763338  
C215     C      0.996440000000     0.157280000000     0.536750000000    -0.0978858  
C216     C      0.021160000000     0.231890000000     0.529580000000    -0.0380225  
C217     C      0.023410000000     0.268110000000     0.529810000000    -0.0337365  
C218     C      0.998960000000     0.214800000000     0.506160000000    -0.00783658 
C219     C      0.995500000000     0.158050000000     0.474280000000    -0.0977588  
C220     C      0.003470000000     0.288100000000     0.506670000000    -0.0153525  
C221     C      0.976260000000     0.347090000000     0.504070000000    -0.107616   
C222     C      0.981170000000     0.271030000000     0.483350000000    -0.0337289  
C223     C      0.978990000000     0.383160000000     0.504180000000     0.0786306  
C224     C      0.040460000000     0.379690000000     0.510110000000     0.150403   
C225     C      0.978980000000     0.234790000000     0.483060000000    -0.0379503  
C226     C      0.996850000000     0.176260000000     0.505730000000     0.0500557  
C227     C      0.005960000000     0.326630000000     0.506830000000     0.0653295  
C228     C      0.076480000000     0.394910000000     0.514510000000    -0.210801   
H1       H      0.890000000000     0.555340000000     0.003090000000     0.0209127  
H2       H      0.600570000000     0.493200000000     0.042700000000     0.0205516  
H3       H      0.780220000000     0.541540000000     0.960980000000     0.0355908  
H4       H      0.713010000000     0.457380000000     0.031690000000     0.0342968  
H5       H      0.662720000000     0.493830000000     0.046890000000     0.0530487  
H6       H      0.776250000000     0.458070000000     0.035850000000     0.0357932  
H7       H      0.670620000000     0.504170000000     0.936340000000     0.0587335  
H8       H      0.827120000000     0.555810000000     0.001300000000     0.0508702  
H9       H      0.827050000000     0.443780000000     0.000460000000     0.050905   
H10      H      0.716990000000     0.541590000000     0.957680000000     0.0337785  
H11      H      0.889910000000     0.444130000000     0.002760000000     0.0209689  
H12      H      0.586220000000     0.529680000000     0.920280000000     0.077833   
H13      H      0.623690000000     0.510640000000     0.901130000000     0.0636431  
H14      H      0.588890000000     0.482720000000     0.913490000000     0.0776373  
H15      H      0.102520000000     0.443840000000     0.002990000000     0.020905   
H16      H      0.392120000000     0.492190000000     0.042850000000     0.0207115  
H17      H      0.216270000000     0.457370000000     0.036110000000     0.0356384  
H18      H      0.275670000000     0.540950000000     0.958120000000     0.0335091  
H19      H      0.329960000000     0.492750000000     0.047130000000     0.0529884  
H20      H      0.212460000000     0.541060000000     0.961480000000     0.0353785  
H21      H      0.321910000000     0.503530000000     0.936630000000     0.0582966  
H22      H      0.165380000000     0.443310000000     0.000760000000     0.0507506  
H23      H      0.165620000000     0.555340000000     0.001800000000     0.0508136  
H24      H      0.279510000000     0.456530000000     0.031890000000     0.0342249  
H25      H      0.102730000000     0.555050000000     0.003510000000     0.0208639  
H26      H      0.403690000000     0.482300000000     0.913590000000     0.0761687  
H27      H      0.368770000000     0.510130000000     0.901360000000     0.0625863  
H28      H      0.406190000000     0.529260000000     0.920550000000     0.0756952  
H29      H      0.443020000000     0.891650000000     0.004980000000     0.0208885  
H30      H      0.503140000000     0.601840000000     0.042620000000     0.0206226  
H31      H      0.454590000000     0.782110000000     0.962340000000     0.0354765  
H32      H      0.540240000000     0.713760000000     0.030090000000     0.0342326  
H33      H      0.503640000000     0.664060000000     0.046710000000     0.0530725  
H34      H      0.540540000000     0.777040000000     0.034260000000     0.0353814  
H35      H      0.489080000000     0.671920000000     0.936610000000     0.0584598  
H36      H      0.442110000000     0.828810000000     0.003140000000     0.0508247  
H37      H      0.554030000000     0.828020000000     0.998830000000     0.0504927  
H38      H      0.453530000000     0.718900000000     0.959120000000     0.0335529  
H39      H      0.554130000000     0.890930000000     0.001280000000     0.0197716  
H40      H      0.461280000000     0.587210000000     0.922570000000     0.0761128  
H41      H      0.478370000000     0.624980000000     0.902240000000     0.0628935  
H42      H      0.507580000000     0.590500000000     0.912500000000     0.0762968  
H43      H      0.554690000000     0.104080000000     0.002030000000     0.0200218  
H44      H      0.503140000000     0.393400000000     0.042520000000     0.0205117  
H45      H      0.541130000000     0.218220000000     0.034810000000     0.0355235  
H46      H      0.455320000000     0.276340000000     0.958300000000     0.0336542  
H47      H      0.503870000000     0.331200000000     0.046590000000     0.0529712  
H48      H      0.456160000000     0.213130000000     0.961750000000     0.0354169  
H49      H      0.491550000000     0.323290000000     0.936230000000     0.0585759  
H50      H      0.554900000000     0.167010000000     0.999450000000     0.0505988  
H51      H      0.442960000000     0.166730000000     0.002950000000     0.050772   
H52      H      0.540990000000     0.281510000000     0.030500000000     0.034236   
H53      H      0.443560000000     0.103890000000     0.005010000000     0.0207494  
H54      H      0.510590000000     0.405200000000     0.912870000000     0.0773776  
H55      H      0.482520000000     0.370180000000     0.901420000000     0.0633834  
H56      H      0.463880000000     0.407520000000     0.921200000000     0.0775966  
H57      H      0.439750000000     0.998300000000     0.899620000000     0.020792   
H58      H      0.495160000000     0.950290000000     0.609530000000     0.0200485  
H59      H      0.450110000000     0.037030000000     0.788030000000     0.035328   
H60      H      0.532220000000     0.964000000000     0.720770000000     0.0341635  
H61      H      0.494950000000     0.947610000000     0.671740000000     0.052687   
H62      H      0.533200000000     0.961730000000     0.784050000000     0.0355878  
H63      H      0.484520000000     0.058360000000     0.677030000000     0.0585613  
H64      H      0.437230000000     0.998590000000     0.836750000000     0.0506924  
H65      H      0.549180000000     0.998530000000     0.833050000000     0.0507911  
H66      H      0.448320000000     0.038380000000     0.724750000000     0.0335738  
H67      H      0.550860000000     0.997680000000     0.895880000000     0.0207255  
H68      H      0.458730000000     0.072680000000     0.592590000000     0.0790243  
H69      H      0.478400000000     0.092550000000     0.629350000000     0.0636102  
H70      H      0.505780000000     0.079050000000     0.594560000000     0.076985   
H71      H      0.492100000000     0.056690000000     0.396520000000     0.0199715  
H72      H      0.446780000000     0.000350000000     0.110010000000     0.0208851  
H73      H      0.457740000000     0.038690000000     0.284420000000     0.0355473  
H74      H      0.537840000000     0.957590000000     0.224390000000     0.0338306  
H75      H      0.444710000000     0.000380000000     0.172230000000     0.0530941  
H76      H      0.536620000000     0.958950000000     0.287680000000     0.035371   
H77      H      0.555810000000     0.994570000000     0.176510000000     0.0590616  
H78      H      0.493600000000     0.055770000000     0.333680000000     0.0505657  
H79      H      0.498820000000     0.943870000000     0.336180000000     0.0503725  
H80      H      0.459860000000     0.038190000000     0.221140000000     0.0343524  
H81      H      0.497860000000     0.945650000000     0.399060000000     0.0194682  
H82      H      0.574760000000     0.016030000000     0.093570000000     0.0800626  
H83      H      0.589750000000     0.989670000000     0.128520000000     0.065025   
H84      H      0.570380000000     0.968730000000     0.092200000000     0.0802017  
H85      H      0.996730000000     0.445570000000     0.896510000000     0.0208977  
H86      H      0.954980000000     0.498680000000     0.608160000000     0.0205821  
H87      H      0.037850000000     0.544930000000     0.788100000000     0.0353458  
H88      H      0.966890000000     0.461760000000     0.719940000000     0.0342266  
H89      H      0.951140000000     0.498680000000     0.670360000000     0.0529352  
H90      H      0.963290000000     0.461220000000     0.783210000000     0.0356673  
H91      H      0.061620000000     0.510400000000     0.677690000000     0.05841    
H92      H      0.998630000000     0.446190000000     0.833620000000     0.0507219  
H93      H      0.998290000000     0.558220000000     0.835490000000     0.050724   
H94      H      0.040500000000     0.546280000000     0.724900000000     0.0335564  
H95      H      0.996980000000     0.556760000000     0.898320000000     0.0208596  
H96      H      0.076270000000     0.537090000000     0.592880000000     0.0776232  
H97      H      0.096160000000     0.519430000000     0.630610000000     0.0630992  
H98      H      0.084770000000     0.490450000000     0.596310000000     0.0763357  
H99      H      0.996190000000     0.553890000000     0.110700000000     0.0210002  
H100     H      0.954580000000     0.503770000000     0.399430000000     0.0206817  
H101     H      0.037220000000     0.455470000000     0.219890000000     0.0355167  
H102     H      0.965700000000     0.539020000000     0.287000000000     0.0343754  
H103     H      0.950460000000     0.502670000000     0.337260000000     0.0530614  
H104     H      0.962050000000     0.538680000000     0.223750000000     0.0357866  
H105     H      0.061030000000     0.492190000000     0.329590000000     0.058586   
H106     H      0.997790000000     0.553590000000     0.173560000000     0.0509116  
H107     H      0.997800000000     0.441550000000     0.172290000000     0.0508311  
H108     H      0.039970000000     0.455020000000     0.283130000000     0.0337476  
H109     H      0.996760000000     0.442690000000     0.109400000000     0.0208831  
H110     H      0.076680000000     0.467240000000     0.414510000000     0.0776562  
H111     H      0.096040000000     0.485160000000     0.376620000000     0.0633568  
H112     H      0.084080000000     0.514030000000     0.410790000000     0.076605   
H113     H      0.098240000000     0.001370000000     0.447390000000     0.0208939  
H114     H      0.385350000000     0.053790000000     0.506990000000     0.0191197  
H115     H      0.209720000000     0.962870000000     0.460310000000     0.0354997  
H116     H      0.274360000000     0.036500000000     0.543970000000     0.0338985  
H117     H      0.323060000000     0.054600000000     0.506810000000     0.0525802  
H118     H      0.211020000000     0.037550000000     0.544030000000     0.0354851  
H119     H      0.321120000000     0.943760000000     0.495890000000     0.0590179  
H120     H      0.161120000000     0.001240000000     0.446540000000     0.0509171  
H121     H      0.161910000000     0.999990000000     0.558520000000     0.0508288  
H122     H      0.273040000000     0.962700000000     0.459490000000     0.0338222  
H123     H      0.099010000000     0.000660000000     0.558550000000     0.0208172  
H124     H      0.403380000000     0.924620000000     0.516070000000     0.0795949  
H125     H      0.369910000000     0.911570000000     0.486810000000     0.0648749  
H126     H      0.406800000000     0.933280000000     0.469500000000     0.0802802  
H127     H      0.886430000000     0.002750000000     0.560000000000     0.0209087  
H128     H      0.599160000000     0.953320000000     0.500670000000     0.0203291  
H129     H      0.775470000000     0.042860000000     0.547170000000     0.0355626  
H130     H      0.709840000000     0.970290000000     0.463360000000     0.03436    
H131     H      0.661400000000     0.952320000000     0.500620000000     0.0530883  
H132     H      0.773140000000     0.968480000000     0.463200000000     0.0357734  
H133     H      0.663750000000     0.063070000000     0.512320000000     0.0589521  
H134     H      0.823550000000     0.003850000000     0.560840000000     0.0508751  
H135     H      0.822810000000     0.005130000000     0.448850000000     0.050935   
H136     H      0.712150000000     0.043770000000     0.548110000000     0.0336924  
H137     H      0.885680000000     0.003470000000     0.448830000000     0.0209306  
H138     H      0.578000000000     0.073400000000     0.539170000000     0.0781087  
H139     H      0.615010000000     0.095240000000     0.522270000000     0.0643009  
H140     H      0.581550000000     0.082720000000     0.492740000000     0.0790697  
H141     H      0.992460000000     0.894760000000     0.558010000000     0.0209501  
H142     H      0.954220000000     0.605790000000     0.506180000000     0.0206661  
H143     H      0.960180000000     0.780990000000     0.542760000000     0.0357449  
H144     H      0.038700000000     0.723210000000     0.458550000000     0.0336967  
H145     H      0.949750000000     0.667920000000     0.505770000000     0.0530818  
H146     H      0.035030000000     0.786430000000     0.459390000000     0.035499   
H147     H      0.060250000000     0.676360000000     0.495090000000     0.0585072  
H148     H      0.995040000000     0.831890000000     0.557650000000     0.0508653  
H149     H      0.994530000000     0.833250000000     0.445670000000     0.0508549  
H150     H      0.964740000000     0.717770000000     0.542700000000     0.0343125  
H151     H      0.992490000000     0.896120000000     0.446860000000     0.0208873  
H152     H      0.076250000000     0.591640000000     0.469240000000     0.0777014  
H153     H      0.095480000000     0.629520000000     0.487370000000     0.0633235  
H154     H      0.083810000000     0.595030000000     0.516010000000     0.0764466  
H155     H      0.993320000000     0.108800000000     0.449370000000     0.0209644  
H156     H      0.954860000000     0.397470000000     0.501770000000     0.0206662  
H157     H      0.961380000000     0.222450000000     0.464930000000     0.0357311  
H158     H      0.040560000000     0.280480000000     0.548350000000     0.0336222  
H159     H      0.950780000000     0.335320000000     0.502150000000     0.0530279  
H160     H      0.037160000000     0.217240000000     0.547480000000     0.035419   
H161     H      0.061430000000     0.327550000000     0.511730000000     0.0585398  
H162     H      0.996150000000     0.171660000000     0.449670000000     0.0508529  
H163     H      0.996970000000     0.170330000000     0.561660000000     0.0507699  
H164     H      0.965680000000     0.285670000000     0.465000000000     0.0343384  
H165     H      0.994680000000     0.107460000000     0.560510000000     0.0208311  
H166     H      0.077210000000     0.412290000000     0.537510000000     0.0776734  
H167     H      0.096470000000     0.374590000000     0.519030000000     0.0632534  
H168     H      0.084250000000     0.409090000000     0.490640000000     0.0764806  
N1       N      0.598340000000     0.498730000000     0.987040000000    -0.220854   
N2       N      0.894690000000     0.499740000000     0.002950000000    -0.208473   
N3       N      0.394260000000     0.497990000000     0.987210000000    -0.220826   
N4       N      0.097890000000     0.499460000000     0.003260000000    -0.208424   
N5       N      0.495400000000     0.599660000000     0.987230000000    -0.221155   
N6       N      0.498610000000     0.896030000000     0.003130000000    -0.208859   
N7       N      0.496480000000     0.395590000000     0.986970000000    -0.220954   
N8       N      0.499140000000     0.099250000000     0.003510000000    -0.208798   
N9       N      0.489700000000     0.005930000000     0.605970000000    -0.221155   
N10      N      0.495460000000     0.997980000000     0.902480000000    -0.208668   
N11      N      0.502540000000     0.997070000000     0.105930000000    -0.220827   
N12      N      0.494880000000     0.001270000000     0.402520000000    -0.209149   
N13      N      0.010560000000     0.504870000000     0.605690000000    -0.220912   
N14      N      0.996860000000     0.501080000000     0.902150000000    -0.208428   
N15      N      0.010250000000     0.498290000000     0.401750000000    -0.220968   
N16      N      0.996490000000     0.498340000000     0.105310000000    -0.208469   
N17      N      0.390530000000     0.998320000000     0.501220000000    -0.221271   
N18      N      0.093900000000     0.001040000000     0.503010000000    -0.208723   
N19      N      0.594150000000     0.008770000000     0.506830000000    -0.221214   
N20      N      0.890790000000     0.003030000000     0.504380000000    -0.208722   
N21      N      0.009890000000     0.603820000000     0.500570000000    -0.220904   
N22      N      0.992470000000     0.900180000000     0.502490000000    -0.208484   
N23      N      0.010580000000     0.399790000000     0.506830000000    -0.221026   
N24      N      0.993920000000     0.103390000000     0.504880000000    -0.208637   
O1       O      0.992580000000     0.051440000000     0.475330000000    -0.55793    
O2       O      0.991820000000     0.952830000000     0.474170000000    -0.557851   
O3       O      0.942870000000     0.002540000000     0.475080000000    -0.558048   
O4       O      0.041430000000     0.001740000000     0.474420000000    -0.558223   
O5       O      0.041820000000     0.001030000000     0.532310000000    -0.558032   
O6       O      0.943260000000     0.001940000000     0.532970000000    -0.558187   
O7       O      0.992130000000     0.952150000000     0.532070000000    -0.557671   
O8       O      0.993030000000     0.050760000000     0.533220000000    -0.557801   
O9       O      0.981830000000     0.452420000000     0.505240000000    -0.558832   
O10      O      0.981490000000     0.550990000000     0.502280000000    -0.558807   
O11      O      0.981610000000     0.500200000000     0.454450000000    -0.557801   
O12      O      0.981760000000     0.503180000000     0.553070000000    -0.557919   
O13      O      0.039380000000     0.503540000000     0.552870000000    -0.565044   
O14      O      0.039220000000     0.500210000000     0.454460000000    -0.565306   
O15      O      0.039110000000     0.551160000000     0.502010000000    -0.564406   
O16      O      0.039440000000     0.452640000000     0.505320000000    -0.564608   
O17      O      0.543030000000     0.977470000000     0.506040000000    -0.55952    
O18      O      0.444700000000     0.972180000000     0.503410000000    -0.564313   
O19      O      0.495210000000     0.973550000000     0.455480000000    -0.559235   
O20      O      0.492500000000     0.976050000000     0.554000000000    -0.559339   
O21      O      0.489450000000     0.033580000000     0.552500000000    -0.565381   
O22      O      0.492160000000     0.031350000000     0.454060000000    -0.558642   
O23      O      0.441610000000     0.029740000000     0.502000000000    -0.559689   
O24      O      0.540010000000     0.035030000000     0.504640000000    -0.56359    
O25      O      0.527810000000     0.948220000000     0.002760000000    -0.558286   
O26      O      0.528070000000     0.046890000000     0.003080000000    -0.557988   
O27      O      0.529620000000     0.997360000000     0.052150000000    -0.564162   
O28      O      0.526200000000     0.997710000000     0.953700000000    -0.557807   
O29      O      0.468330000000     0.997860000000     0.955750000000    -0.557842   
O30      O      0.472030000000     0.997550000000     0.054270000000    -0.558932   
O31      O      0.470220000000     0.046980000000     0.005110000000    -0.558976   
O32      O      0.469960000000     0.948430000000     0.004850000000    -0.558882   
O33      O      0.996210000000     0.470020000000     0.052650000000    -0.557202   
O34      O      0.996320000000     0.471340000000     0.954030000000    -0.556813   
O35      O      0.045540000000     0.470590000000     0.003390000000    -0.55743    
O36      O      0.946950000000     0.470720000000     0.003270000000    -0.557487   
O37      O      0.947020000000     0.528640000000     0.003970000000    -0.557659   
O38      O      0.045630000000     0.528500000000     0.004180000000    -0.557478   
O39      O      0.996450000000     0.529260000000     0.954850000000    -0.558151   
O40      O      0.996220000000     0.527940000000     0.053390000000    -0.557886   
O41      O      0.495990000000     0.546940000000     0.958230000000    -0.565804   
O42      O      0.496460000000     0.448430000000     0.958100000000    -0.564673   
O43      O      0.447020000000     0.497540000000     0.958210000000    -0.56563    
O44      O      0.545530000000     0.497980000000     0.958120000000    -0.564065   
O45      O      0.545650000000     0.497850000000     0.015730000000    -0.558115   
O46      O      0.447010000000     0.497400000000     0.015820000000    -0.55799    
O47      O      0.496580000000     0.448270000000     0.015710000000    -0.558449   
O48      O      0.496100000000     0.546930000000     0.015850000000    -0.558183   
V1       V      0.992140000000     0.002160000000     0.472460000000     1.39548    
V2       V      0.992550000000     0.001430000000     0.534930000000     1.39522    
V3       V      0.979370000000     0.501700000000     0.503770000000     1.39342    
V4       V      0.041550000000     0.501900000000     0.503660000000     1.38263    
V5       V      0.493980000000     0.972530000000     0.504790000000     1.39272    
V6       V      0.490690000000     0.034700000000     0.503240000000     1.38837    
V7       V      0.530210000000     0.997550000000     0.002850000000     1.39028    
V8       V      0.467850000000     0.997720000000     0.005090000000     1.39715    
V9       V      0.996240000000     0.468380000000     0.003320000000     1.39291    
V10      V      0.996320000000     0.530870000000     0.004140000000     1.3952     
V11      V      0.496260000000     0.497700000000     0.955910000000     1.38356    
V12      V      0.496340000000     0.497590000000     0.018080000000     1.39263    


