data_structure

_audit_creation_method RASPA-1.0
_audit_creation_date 2023-5-22
_audit_author_name 'Poobodin Mano'

_cell_length_a    43.4031
_cell_length_b    43.4027
_cell_length_c    32.4803
_cell_angle_alpha 90.0001
_cell_angle_beta  90
_cell_angle_gamma 120
_cell_volume      52989.3

_symmetry_cell_setting          triclinic
_symmetry_space_group_name_Hall 'P 1'
_symmetry_space_group_name_H-M  'P 1'
_symmetry_Int_Tables_number     1

_symmetry_equiv_pos_as_xyz 'x,y,z'

loop_
_atom_site_label
_atom_site_type_symbol
_atom_site_fract_x
_atom_site_fract_y
_atom_site_fract_z
_atom_site_charge
C1       C      0.502140000000     0.001270000000     0.258100000000     0.425203   
C2       C      0.502350000000     0.001700000000     0.413690000000     0.425029   
C3       C      0.443980000000     0.443230000000     0.336130000000     0.425136   
C4       C      0.060530000000     0.059780000000     0.335700000000     0.42621    
C5       C      0.502340000000     0.251750000000     0.258080000000     0.425604   
C6       C      0.502120000000     0.251300000000     0.413670000000     0.42563    
C7       C      0.443940000000     0.193240000000     0.335660000000     0.425128   
C8       C      0.060500000000     0.309780000000     0.336080000000     0.426435   
C9       C      0.252130000000     0.501250000000     0.258090000000     0.425861   
C10      C      0.252330000000     0.501690000000     0.413690000000     0.42523    
C11      C      0.310500000000     0.059780000000     0.335670000000     0.425219   
C12      C      0.193960000000     0.443210000000     0.336090000000     0.425319   
C13      C      0.252370000000     0.251760000000     0.258140000000     0.425212   
C14      C      0.252140000000     0.251310000000     0.413740000000     0.425461   
C15      C      0.310520000000     0.309800000000     0.336160000000     0.424731   
C16      C      0.193970000000     0.193250000000     0.335730000000     0.425014   
C17      C      0.443730000000     0.500830000000     0.002530000000     0.424594   
C18      C      0.060280000000     0.500830000000     0.002600000000     0.425435   
C19      C      0.002020000000     0.000840000000     0.924760000000     0.412185   
C20      C      0.001970000000     0.000860000000     0.080360000000     0.409429   
C21      C      0.060730000000     0.252170000000     0.002530000000     0.425337   
C22      C      0.444170000000     0.252170000000     0.002560000000     0.424652   
C23      C      0.502470000000     0.252140000000     0.080340000000     0.42522    
C24      C      0.502420000000     0.252150000000     0.924740000000     0.424936   
C25      C      0.310260000000     0.000830000000     0.002580000000     0.424601   
C26      C      0.193710000000     0.000830000000     0.002520000000     0.424381   
C27      C      0.252040000000     0.500850000000     0.924760000000     0.424634   
C28      C      0.251990000000     0.500860000000     0.080350000000     0.425318   
C29      C      0.194180000000     0.252170000000     0.002640000000     0.424486   
C30      C      0.310730000000     0.252170000000     0.002570000000     0.424571   
C31      C      0.252480000000     0.252150000000     0.080410000000     0.425202   
C32      C      0.252410000000     0.252150000000     0.924810000000     0.424909   
C33      C      0.002140000000     0.001240000000     0.747030000000     0.413202   
C34      C      0.002300000000     0.001690000000     0.591430000000     0.413017   
C35      C      0.502260000000     0.443220000000     0.668970000000     0.425319   
C36      C      0.502220000000     0.059750000000     0.669470000000     0.425055   
C37      C      0.502320000000     0.251740000000     0.747010000000     0.425595   
C38      C      0.502170000000     0.251280000000     0.591410000000     0.425515   
C39      C      0.002250000000     0.309770000000     0.668960000000     0.412997   
C40      C      0.002240000000     0.193220000000     0.669450000000     0.412843   
C41      C      0.252140000000     0.501260000000     0.747020000000     0.425643   
C42      C      0.252280000000     0.501700000000     0.591430000000     0.4256     
C43      C      0.252220000000     0.059770000000     0.669490000000     0.425237   
C44      C      0.252210000000     0.443210000000     0.668990000000     0.425054   
C45      C      0.252290000000     0.251740000000     0.747070000000     0.425694   
C46      C      0.252160000000     0.251280000000     0.591480000000     0.425579   
C47      C      0.252220000000     0.193230000000     0.669520000000     0.425236   
C48      C      0.252220000000     0.309770000000     0.669030000000     0.425177   
C49      C      0.220010000000     0.376490000000     0.668890000000    -0.000622991
C50      C      0.252210000000     0.409070000000     0.668920000000    -0.106177   
C51      C      0.284420000000     0.408690000000     0.668920000000    -0.000671482
C52      C      0.284420000000     0.376500000000     0.668900000000    -0.00058929 
C53      C      0.252220000000     0.343910000000     0.668930000000    -0.106203   
C54      C      0.220010000000     0.344290000000     0.668920000000    -0.000662932
C55      C      0.284420000000     0.126500000000     0.669600000000    -0.000527768
C56      C      0.252220000000     0.093910000000     0.669580000000    -0.106314   
C57      C      0.220020000000     0.094300000000     0.669610000000    -0.000583123
C58      C      0.220020000000     0.126500000000     0.669610000000    -0.000709855
C59      C      0.252220000000     0.159080000000     0.669610000000    -0.106078   
C60      C      0.284430000000     0.158700000000     0.669630000000    -0.000761271
C61      C      0.034460000000     0.408700000000     0.668870000000    -0.000337826
C62      C      0.502260000000     0.409080000000     0.668880000000    -0.106315   
C63      C      0.470050000000     0.376500000000     0.668850000000    -0.000614027
C64      C      0.470050000000     0.344300000000     0.668870000000    -0.000688028
C65      C      0.502260000000     0.343920000000     0.668880000000    -0.106131   
C66      C      0.034460000000     0.376500000000     0.668850000000    -0.000350544
C67      C      0.034430000000     0.126480000000     0.669560000000    -0.000379536
C68      C      0.502220000000     0.093900000000     0.669550000000    -0.106113   
C69      C      0.470020000000     0.094280000000     0.669570000000    -0.000711787
C70      C      0.470030000000     0.126490000000     0.669550000000    -0.000590924
C71      C      0.502230000000     0.159070000000     0.669540000000    -0.106226   
C72      C      0.034430000000     0.158680000000     0.669570000000    -0.000384286
C73      C      0.280140000000     0.280080000000     0.857390000000     0.000701518
C74      C      0.252360000000     0.252110000000     0.879360000000    -0.105136   
C75      C      0.224550000000     0.224040000000     0.857530000000     0.000717499
C76      C      0.224300000000     0.224150000000     0.814500000000     0.00105905 
C77      C      0.252320000000     0.251880000000     0.792520000000    -0.106076   
C78      C      0.280350000000     0.279740000000     0.814350000000     0.0011348  
C79      C      0.279880000000     0.028950000000     0.857480000000     0.000767857
C80      C      0.252070000000     0.500890000000     0.879310000000    -0.104976   
C81      C      0.224290000000     0.472920000000     0.857340000000     0.000578635
C82      C      0.224080000000     0.473260000000     0.814300000000     0.00113513 
C83      C      0.252110000000     0.501120000000     0.792470000000    -0.106111   
C84      C      0.280130000000     0.028830000000     0.814440000000     0.0011205  
C85      C      0.409650000000     0.284370000000     0.002550000000    -0.000836187
C86      C      0.410040000000     0.252170000000     0.002560000000    -0.106653   
C87      C      0.377450000000     0.219970000000     0.002570000000    -0.000824164
C88      C      0.345250000000     0.219970000000     0.002550000000    -0.000924289
C89      C      0.344870000000     0.252170000000     0.002560000000    -0.106463   
C90      C      0.377450000000     0.284370000000     0.002570000000    -0.000954079
C91      C      0.127450000000     0.284370000000     0.002580000000    -0.000673343
C92      C      0.094870000000     0.252170000000     0.002550000000    -0.107531   
C93      C      0.095250000000     0.219970000000     0.002560000000    -0.00065156 
C94      C      0.127450000000     0.219970000000     0.002610000000    -0.00147332 
C95      C      0.160030000000     0.252170000000     0.002620000000    -0.106276   
C96      C      0.159650000000     0.284370000000     0.002600000000    -0.00120889 
C97      C      0.030170000000     0.280080000000     0.857320000000     0.000787123
C98      C      0.502380000000     0.252100000000     0.879300000000    -0.105154   
C99      C      0.474570000000     0.224030000000     0.857460000000     0.00070063 
C100     C      0.474320000000     0.224150000000     0.814430000000     0.0011591  
C101     C      0.502340000000     0.251880000000     0.792450000000    -0.106162   
C102     C      0.030380000000     0.279740000000     0.814280000000     0.00131076 
C103     C      0.409190000000     0.033030000000     0.002540000000    -0.0009352  
C104     C      0.409590000000     0.500830000000     0.002530000000    -0.106468   
C105     C      0.377000000000     0.468620000000     0.002550000000    -0.000957684
C106     C      0.344800000000     0.468620000000     0.002550000000    -0.000928183
C107     C      0.344420000000     0.500830000000     0.002560000000    -0.106489   
C108     C      0.376990000000     0.033030000000     0.002580000000    -0.000815051
C109     C      0.094810000000     0.468620000000     0.002580000000    -0.000704932
C110     C      0.094420000000     0.500830000000     0.002590000000    -0.107522   
C111     C      0.126990000000     0.033030000000     0.002560000000    -0.000686508
C112     C      0.159190000000     0.033030000000     0.002520000000    -0.00110465 
C113     C      0.159590000000     0.500830000000     0.002550000000    -0.106349   
C114     C      0.127000000000     0.468620000000     0.002580000000    -0.00149412 
C115     C      0.474320000000     0.472910000000     0.857340000000     0.000621652
C116     C      0.002060000000     0.000880000000     0.879310000000    -0.115549   
C117     C      0.029870000000     0.028950000000     0.857480000000     0.000837069
C118     C      0.030130000000     0.028830000000     0.814450000000     0.00133967 
C119     C      0.002110000000     0.001100000000     0.792470000000    -0.116512   
C120     C      0.474120000000     0.473250000000     0.814300000000     0.00122429 
C121     C      0.279900000000     0.250980000000     0.481080000000     0.000757197
C122     C      0.252110000000     0.251220000000     0.459190000000    -0.106031   
C123     C      0.224310000000     0.251430000000     0.481100000000     0.000699968
C124     C      0.224090000000     0.250970000000     0.524140000000     0.000807902
C125     C      0.252120000000     0.251210000000     0.546030000000    -0.106131   
C126     C      0.280130000000     0.251430000000     0.524120000000     0.000846651
C127     C      0.252240000000     0.279750000000     0.190890000000     0.000811795
C128     C      0.252440000000     0.251900000000     0.212700000000    -0.105992   
C129     C      0.252700000000     0.224160000000     0.190700000000     0.000717835
C130     C      0.252280000000     0.224040000000     0.147670000000     0.000840115
C131     C      0.252510000000     0.252100000000     0.125860000000    -0.105962   
C132     C      0.252730000000     0.280080000000     0.147850000000     0.000731922
C133     C      0.280150000000     0.001590000000     0.481050000000     0.000831858
C134     C      0.252350000000     0.501760000000     0.459140000000    -0.105982   
C135     C      0.224560000000     0.502000000000     0.481020000000     0.000777656
C136     C      0.224310000000     0.501550000000     0.524060000000     0.000680486
C137     C      0.252320000000     0.501760000000     0.545980000000    -0.106073   
C138     C      0.280370000000     0.002040000000     0.524080000000     0.000642015
C139     C      0.251760000000     0.028850000000     0.190640000000     0.000889922
C140     C      0.252060000000     0.501110000000     0.212640000000    -0.106146   
C141     C      0.252260000000     0.473260000000     0.190830000000     0.000841794
C142     C      0.251750000000     0.472930000000     0.147800000000     0.000738403
C143     C      0.251970000000     0.500910000000     0.125800000000    -0.105979   
C144     C      0.252170000000     0.028970000000     0.147610000000     0.000767449
C145     C      0.974090000000     0.250970000000     0.524070000000     0.0117463  
C146     C      0.502130000000     0.251210000000     0.545960000000    -0.106042   
C147     C      0.530140000000     0.251420000000     0.524040000000     0.000683837
C148     C      0.529890000000     0.250970000000     0.481000000000     0.000862208
C149     C      0.502100000000     0.251220000000     0.459120000000    -0.106137   
C150     C      0.974310000000     0.251430000000     0.481040000000     0.011876   
C151     C      0.377210000000     0.158710000000     0.335570000000    -0.000722793
C152     C      0.409800000000     0.159100000000     0.335590000000    -0.106205   
C153     C      0.409420000000     0.126510000000     0.335580000000    -0.000738739
C154     C      0.377220000000     0.094310000000     0.335560000000    -0.000541973
C155     C      0.344640000000     0.093920000000     0.335590000000    -0.106348   
C156     C      0.345020000000     0.126510000000     0.335580000000    -0.00059477 
C157     C      0.127230000000     0.344290000000     0.336160000000    -0.000406844
C158     C      0.094640000000     0.343920000000     0.336160000000    -0.107448   
C159     C      0.095040000000     0.376510000000     0.336190000000    -0.000306203
C160     C      0.127240000000     0.408700000000     0.336170000000    -0.00118425 
C161     C      0.159820000000     0.409070000000     0.336160000000    -0.106208   
C162     C      0.159430000000     0.376480000000     0.336180000000    -0.000886687
C163     C      0.502210000000     0.279740000000     0.190820000000     0.000805344
C164     C      0.502410000000     0.251890000000     0.212630000000    -0.106041   
C165     C      0.002670000000     0.224150000000     0.190630000000    -0.0013464  
C166     C      0.002250000000     0.224030000000     0.147600000000    -0.00173104 
C167     C      0.502490000000     0.252100000000     0.125790000000    -0.105971   
C168     C      0.502710000000     0.280070000000     0.147780000000     0.000776087
C169     C      0.530420000000     0.502050000000     0.524090000000     0.000752682
C170     C      0.002340000000     0.001770000000     0.545980000000    -0.116076   
C171     C      0.974340000000     0.001550000000     0.524060000000     0.0117713  
C172     C      0.974580000000     0.002010000000     0.481030000000     0.0117194  
C173     C      0.502380000000     0.001770000000     0.459140000000    -0.106002   
C174     C      0.530200000000     0.501590000000     0.481050000000     0.000794037
C175     C      0.377250000000     0.408720000000     0.336230000000    -0.000680388
C176     C      0.409840000000     0.409090000000     0.336220000000    -0.106244   
C177     C      0.409450000000     0.376510000000     0.336240000000    -0.000555548
C178     C      0.377250000000     0.344310000000     0.336230000000    -0.000800776
C179     C      0.344660000000     0.343940000000     0.336230000000    -0.106039   
C180     C      0.345050000000     0.376520000000     0.336260000000    -0.000674431
C181     C      0.127240000000     0.158710000000     0.335620000000    -0.00126273 
C182     C      0.159830000000     0.159100000000     0.335640000000    -0.106018   
C183     C      0.159460000000     0.126520000000     0.335630000000    -0.00101438 
C184     C      0.127260000000     0.094310000000     0.335610000000    -0.000355627
C185     C      0.094670000000     0.093920000000     0.335630000000    -0.10742    
C186     C      0.095050000000     0.126510000000     0.335630000000    -0.000372247
C187     C      0.502230000000     0.473260000000     0.190840000000     0.000732937
C188     C      0.502060000000     0.001130000000     0.212650000000    -0.106457   
C189     C      0.001800000000     0.028860000000     0.190650000000    -0.00165162 
C190     C      0.002200000000     0.028990000000     0.147620000000    -0.0013712  
C191     C      0.001960000000     0.000920000000     0.125810000000    -0.103736   
C192     C      0.501730000000     0.472930000000     0.147800000000     0.000841194
C193     C      0.502120000000     0.501250000000     0.258100000000     0.425282   
C194     C      0.502370000000     0.501730000000     0.413690000000     0.425842   
C195     C      0.443980000000     0.943230000000     0.336090000000     0.425399   
C196     C      0.060530000000     0.559780000000     0.335660000000     0.42558    
C197     C      0.502340000000     0.751750000000     0.258120000000     0.425527   
C198     C      0.502120000000     0.751300000000     0.413720000000     0.425185   
C199     C      0.443950000000     0.693230000000     0.335710000000     0.425085   
C200     C      0.060490000000     0.809790000000     0.336130000000     0.426165   
C201     C      0.252100000000     0.001260000000     0.258090000000     0.425486   
C202     C      0.252330000000     0.001720000000     0.413680000000     0.425199   
C203     C      0.310510000000     0.559760000000     0.335690000000     0.425248   
C204     C      0.193950000000     0.943230000000     0.336110000000     0.425375   
C205     C      0.252370000000     0.751760000000     0.258030000000     0.425473   
C206     C      0.252140000000     0.751310000000     0.413630000000     0.425499   
C207     C      0.310520000000     0.809790000000     0.336050000000     0.425121   
C208     C      0.193970000000     0.693250000000     0.335610000000     0.424734   
C209     C      0.443710000000     0.000830000000     0.002540000000     0.424149   
C210     C      0.060260000000     0.000830000000     0.002580000000     0.42506    
C211     C      0.002050000000     0.500840000000     0.924760000000     0.412565   
C212     C      0.001980000000     0.500860000000     0.080360000000     0.409709   
C213     C      0.060730000000     0.752170000000     0.002570000000     0.42535    
C214     C      0.444180000000     0.752170000000     0.002600000000     0.424663   
C215     C      0.502470000000     0.752140000000     0.080380000000     0.425293   
C216     C      0.502430000000     0.752150000000     0.924790000000     0.425219   
C217     C      0.310280000000     0.500830000000     0.002570000000     0.424675   
C218     C      0.193730000000     0.500830000000     0.002540000000     0.424453   
C219     C      0.252020000000     0.000840000000     0.924750000000     0.424489   
C220     C      0.251960000000     0.000860000000     0.080350000000     0.4249     
C221     C      0.194180000000     0.752170000000     0.002540000000     0.424562   
C222     C      0.310730000000     0.752170000000     0.002470000000     0.424618   
C223     C      0.252480000000     0.752150000000     0.080300000000     0.425265   
C224     C      0.252410000000     0.752150000000     0.924700000000     0.425189   
C225     C      0.002180000000     0.501250000000     0.747030000000     0.413537   
C226     C      0.002330000000     0.501720000000     0.591430000000     0.413444   
C227     C      0.502220000000     0.943200000000     0.668990000000     0.425027   
C228     C      0.502260000000     0.559770000000     0.669480000000     0.425252   
C229     C      0.502320000000     0.751740000000     0.747050000000     0.42556    
C230     C      0.502170000000     0.751280000000     0.591460000000     0.42557    
C231     C      0.002240000000     0.809770000000     0.669010000000     0.413039   
C232     C      0.002250000000     0.693220000000     0.669500000000     0.412954   
C233     C      0.252150000000     0.001240000000     0.747020000000     0.425167   
C234     C      0.252290000000     0.001720000000     0.591420000000     0.424963   
C235     C      0.252210000000     0.559760000000     0.669450000000     0.425186   
C236     C      0.252220000000     0.943220000000     0.668960000000     0.425154   
C237     C      0.252290000000     0.751740000000     0.746960000000     0.425642   
C238     C      0.252160000000     0.751280000000     0.591360000000     0.425502   
C239     C      0.252220000000     0.693220000000     0.669410000000     0.425085   
C240     C      0.252230000000     0.809780000000     0.668920000000     0.425164   
C241     C      0.220020000000     0.876490000000     0.668820000000    -0.000655819
C242     C      0.252220000000     0.909080000000     0.668860000000    -0.106122   
C243     C      0.284430000000     0.908700000000     0.668840000000    -0.000655974
C244     C      0.284430000000     0.876500000000     0.668810000000    -0.000600117
C245     C      0.252220000000     0.843910000000     0.668830000000    -0.106263   
C246     C      0.220020000000     0.844300000000     0.668830000000    -0.000566252
C247     C      0.284420000000     0.626490000000     0.669530000000    -0.000715947
C248     C      0.252210000000     0.593910000000     0.669530000000    -0.106094   
C249     C      0.220010000000     0.594290000000     0.669550000000    -0.000665925
C250     C      0.220010000000     0.626490000000     0.669520000000    -0.000664703
C251     C      0.252220000000     0.659080000000     0.669510000000    -0.106223   
C252     C      0.284420000000     0.658690000000     0.669540000000    -0.000581446
C253     C      0.034430000000     0.908690000000     0.668910000000    -0.000364299
C254     C      0.502230000000     0.909060000000     0.668910000000    -0.106046   
C255     C      0.470020000000     0.876480000000     0.668880000000    -0.000766744
C256     C      0.470030000000     0.844280000000     0.668910000000    -0.000521055
C257     C      0.502240000000     0.843900000000     0.668920000000    -0.106338   
C258     C      0.034440000000     0.876490000000     0.668890000000    -0.000268116
C259     C      0.034460000000     0.626500000000     0.669590000000    -0.00032038 
C260     C      0.502260000000     0.593910000000     0.669570000000    -0.106297   
C261     C      0.470060000000     0.594300000000     0.669610000000    -0.000546362
C262     C      0.470050000000     0.626490000000     0.669590000000    -0.000774139
C263     C      0.502260000000     0.659080000000     0.669580000000    -0.106097   
C264     C      0.034460000000     0.658700000000     0.669610000000    -0.000378671
C265     C      0.280140000000     0.780080000000     0.857270000000     0.000735444
C266     C      0.252360000000     0.752110000000     0.879250000000    -0.105236   
C267     C      0.224550000000     0.724040000000     0.857420000000     0.00073275 
C268     C      0.224300000000     0.724160000000     0.814390000000     0.00106459 
C269     C      0.252320000000     0.751890000000     0.792410000000    -0.10608    
C270     C      0.280350000000     0.779740000000     0.814240000000     0.00114092 
C271     C      0.279880000000     0.528970000000     0.857480000000     0.000634161
C272     C      0.252070000000     0.000880000000     0.879310000000    -0.105541   
C273     C      0.224290000000     0.972910000000     0.857330000000     0.00106538 
C274     C      0.224090000000     0.973240000000     0.814300000000     0.00144741 
C275     C      0.252120000000     0.001100000000     0.792470000000    -0.10641    
C276     C      0.280130000000     0.528850000000     0.814450000000     0.00116764 
C277     C      0.409660000000     0.784380000000     0.002540000000    -0.000934698
C278     C      0.410040000000     0.752170000000     0.002570000000    -0.106495   
C279     C      0.377450000000     0.719970000000     0.002550000000    -0.000890573
C280     C      0.345250000000     0.719970000000     0.002500000000    -0.000907338
C281     C      0.344870000000     0.752170000000     0.002490000000    -0.106462   
C282     C      0.377460000000     0.784380000000     0.002520000000    -0.000956586
C283     C      0.127460000000     0.784370000000     0.002570000000    -0.000654313
C284     C      0.094870000000     0.752170000000     0.002560000000    -0.107538   
C285     C      0.095250000000     0.719970000000     0.002550000000    -0.000663209
C286     C      0.127450000000     0.719970000000     0.002560000000    -0.0014413  
C287     C      0.160040000000     0.752170000000     0.002550000000    -0.106362   
C288     C      0.159650000000     0.784380000000     0.002540000000    -0.00124197 
C289     C      0.030170000000     0.780080000000     0.857360000000     0.000864724
C290     C      0.502390000000     0.752110000000     0.879340000000    -0.105226   
C291     C      0.474580000000     0.724030000000     0.857510000000     0.000753387
C292     C      0.474330000000     0.724150000000     0.814480000000     0.00109583 
C293     C      0.502350000000     0.751880000000     0.792500000000    -0.106028   
C294     C      0.030380000000     0.779740000000     0.814330000000     0.00126969 
C295     C      0.409210000000     0.533030000000     0.002520000000    -0.000914007
C296     C      0.409570000000     0.000830000000     0.002550000000    -0.10677    
C297     C      0.376980000000     0.968620000000     0.002570000000    -0.000629454
C298     C      0.344790000000     0.968620000000     0.002570000000    -0.00050852 
C299     C      0.344400000000     0.000830000000     0.002580000000    -0.106947   
C300     C      0.377010000000     0.533030000000     0.002560000000    -0.000892566
C301     C      0.094780000000     0.968620000000     0.002550000000    -0.000375861
C302     C      0.094400000000     0.000830000000     0.002570000000    -0.107827   
C303     C      0.127010000000     0.533030000000     0.002590000000    -0.000668556
C304     C      0.159210000000     0.533030000000     0.002550000000    -0.00117265 
C305     C      0.159570000000     0.000830000000     0.002530000000    -0.106799   
C306     C      0.126980000000     0.968620000000     0.002550000000    -0.00107344 
C307     C      0.474280000000     0.972910000000     0.857340000000     0.00100887 
C308     C      0.002100000000     0.500890000000     0.879310000000    -0.11527    
C309     C      0.029910000000     0.528950000000     0.857490000000     0.000854557
C310     C      0.030170000000     0.528830000000     0.814450000000     0.00133215 
C311     C      0.002150000000     0.501100000000     0.792470000000    -0.116258   
C312     C      0.474080000000     0.973240000000     0.814300000000     0.00154623 
C313     C      0.279900000000     0.750980000000     0.480970000000     0.000781818
C314     C      0.252110000000     0.751220000000     0.459070000000    -0.106122   
C315     C      0.224310000000     0.751430000000     0.480990000000     0.000744942
C316     C      0.224090000000     0.750970000000     0.524020000000     0.000809013
C317     C      0.252120000000     0.751210000000     0.545910000000    -0.106105   
C318     C      0.280130000000     0.751430000000     0.524000000000     0.000833818
C319     C      0.252240000000     0.779750000000     0.190770000000     0.000789805
C320     C      0.252440000000     0.751900000000     0.212580000000    -0.105992   
C321     C      0.252700000000     0.724160000000     0.190590000000     0.000691267
C322     C      0.252280000000     0.724040000000     0.147560000000     0.00090855 
C323     C      0.252520000000     0.752100000000     0.125740000000    -0.106068   
C324     C      0.252730000000     0.780080000000     0.147740000000     0.000749951
C325     C      0.280150000000     0.501550000000     0.481050000000     0.000704685
C326     C      0.252360000000     0.001800000000     0.459130000000    -0.106083   
C327     C      0.224560000000     0.002040000000     0.481020000000     0.000735161
C328     C      0.224320000000     0.001590000000     0.524060000000     0.000554411
C329     C      0.252340000000     0.001800000000     0.545970000000    -0.105919   
C330     C      0.280360000000     0.502010000000     0.524090000000     0.000833439
C331     C      0.251790000000     0.528850000000     0.190650000000     0.000741715
C332     C      0.252020000000     0.001120000000     0.212640000000    -0.106537   
C333     C      0.252220000000     0.973260000000     0.190830000000     0.00122611 
C334     C      0.251720000000     0.972930000000     0.147790000000     0.00107227 
C335     C      0.251940000000     0.000910000000     0.125800000000    -0.106263   
C336     C      0.252210000000     0.528970000000     0.147620000000     0.00084937 
C337     C      0.974090000000     0.750960000000     0.524120000000     0.0117889  
C338     C      0.502130000000     0.751210000000     0.546010000000    -0.106077   
C339     C      0.530140000000     0.751430000000     0.524090000000     0.000800057
C340     C      0.529900000000     0.750980000000     0.481050000000     0.000713308
C341     C      0.502100000000     0.751220000000     0.459170000000    -0.10596    
C342     C      0.974310000000     0.751420000000     0.481090000000     0.0118409  
C343     C      0.377220000000     0.658690000000     0.335610000000    -0.000719195
C344     C      0.409810000000     0.659080000000     0.335630000000    -0.10616    
C345     C      0.409440000000     0.626500000000     0.335620000000    -0.000731973
C346     C      0.377240000000     0.594300000000     0.335600000000    -0.000602891
C347     C      0.344650000000     0.593910000000     0.335620000000    -0.106259   
C348     C      0.345030000000     0.626490000000     0.335620000000    -0.000611637
C349     C      0.127220000000     0.844310000000     0.336200000000    -0.000353676
C350     C      0.094640000000     0.843930000000     0.336200000000    -0.107273   
C351     C      0.095020000000     0.876520000000     0.336220000000    -0.000475145
C352     C      0.127220000000     0.908710000000     0.336200000000    -0.00109233 
C353     C      0.159800000000     0.909090000000     0.336190000000    -0.106122   
C354     C      0.159420000000     0.876500000000     0.336220000000    -0.000959575
C355     C      0.502210000000     0.779740000000     0.190860000000     0.000824363
C356     C      0.502410000000     0.751890000000     0.212670000000    -0.106047   
C357     C      0.002670000000     0.724150000000     0.190680000000    -0.00131474 
C358     C      0.002260000000     0.724030000000     0.147650000000    -0.00176317 
C359     C      0.502490000000     0.752090000000     0.125830000000    -0.105953   
C360     C      0.502710000000     0.780070000000     0.147830000000     0.000732665
C361     C      0.530380000000     0.002010000000     0.524090000000     0.000634756
C362     C      0.002380000000     0.501800000000     0.545980000000    -0.116116   
C363     C      0.974370000000     0.501590000000     0.524070000000     0.011766   
C364     C      0.974610000000     0.502050000000     0.481030000000     0.0119031  
C365     C      0.502400000000     0.501810000000     0.459140000000    -0.106186   
C366     C      0.530170000000     0.001560000000     0.481060000000     0.000733784
C367     C      0.377260000000     0.908710000000     0.336160000000    -0.000509719
C368     C      0.409840000000     0.909090000000     0.336160000000    -0.106324   
C369     C      0.409450000000     0.876500000000     0.336180000000    -0.000580929
C370     C      0.377250000000     0.844310000000     0.336140000000    -0.000697634
C371     C      0.344670000000     0.843930000000     0.336130000000    -0.106112   
C372     C      0.345060000000     0.876520000000     0.336170000000    -0.000697901
C373     C      0.127240000000     0.658710000000     0.335530000000    -0.00117676 
C374     C      0.159830000000     0.659100000000     0.335540000000    -0.106013   
C375     C      0.159450000000     0.626520000000     0.335540000000    -0.000896924
C376     C      0.127260000000     0.594320000000     0.335540000000    -0.000528623
C377     C      0.094670000000     0.593930000000     0.335570000000    -0.10708    
C378     C      0.095040000000     0.626510000000     0.335560000000    -0.000530767
C379     C      0.502260000000     0.973280000000     0.190840000000     0.00125614 
C380     C      0.502040000000     0.501110000000     0.212650000000    -0.105895   
C381     C      0.001770000000     0.528850000000     0.190650000000    -0.00190884 
C382     C      0.002190000000     0.528970000000     0.147620000000    -0.00121429 
C383     C      0.001950000000     0.500900000000     0.125810000000    -0.103538   
C384     C      0.501750000000     0.972940000000     0.147800000000     0.00099738 
C385     C      0.002140000000     0.001270000000     0.258100000000     0.409747   
C386     C      0.002350000000     0.001700000000     0.413690000000     0.412737   
C387     C      0.943980000000     0.443230000000     0.336130000000     0.424787   
C388     C      0.560530000000     0.059780000000     0.335700000000     0.425429   
C389     C      0.002340000000     0.251750000000     0.258080000000     0.41007    
C390     C      0.002120000000     0.251300000000     0.413670000000     0.413265   
C391     C      0.943940000000     0.193240000000     0.335660000000     0.42483    
C392     C      0.560500000000     0.309780000000     0.336080000000     0.425657   
C393     C      0.752130000000     0.501250000000     0.258090000000     0.425599   
C394     C      0.752330000000     0.501690000000     0.413690000000     0.425229   
C395     C      0.810500000000     0.059780000000     0.335670000000     0.425087   
C396     C      0.693960000000     0.443210000000     0.336090000000     0.425386   
C397     C      0.752370000000     0.251760000000     0.258140000000     0.425251   
C398     C      0.752140000000     0.251310000000     0.413740000000     0.425467   
C399     C      0.810520000000     0.309800000000     0.336160000000     0.424901   
C400     C      0.693970000000     0.193250000000     0.335730000000     0.425087   
C401     C      0.943730000000     0.500830000000     0.002530000000     0.424304   
C402     C      0.560280000000     0.500830000000     0.002600000000     0.424646   
C403     C      0.502020000000     0.000840000000     0.924760000000     0.424421   
C404     C      0.501980000000     0.000860000000     0.080360000000     0.424837   
C405     C      0.560730000000     0.252170000000     0.002530000000     0.424492   
C406     C      0.944180000000     0.252170000000     0.002560000000     0.424281   
C407     C      0.002470000000     0.252140000000     0.080340000000     0.409749   
C408     C      0.002420000000     0.252150000000     0.924740000000     0.412647   
C409     C      0.810260000000     0.000830000000     0.002580000000     0.424772   
C410     C      0.693710000000     0.000830000000     0.002520000000     0.424446   
C411     C      0.752040000000     0.500850000000     0.924760000000     0.424633   
C412     C      0.751990000000     0.500860000000     0.080350000000     0.425352   
C413     C      0.694180000000     0.252170000000     0.002640000000     0.424551   
C414     C      0.810720000000     0.252170000000     0.002570000000     0.424861   
C415     C      0.752480000000     0.252150000000     0.080410000000     0.425239   
C416     C      0.752410000000     0.252150000000     0.924810000000     0.424921   
C417     C      0.502140000000     0.001240000000     0.747030000000     0.425234   
C418     C      0.502300000000     0.001690000000     0.591430000000     0.424719   
C419     C      0.002260000000     0.443220000000     0.668970000000     0.412911   
C420     C      0.002220000000     0.059750000000     0.669470000000     0.413009   
C421     C      0.002320000000     0.251740000000     0.747010000000     0.413505   
C422     C      0.002170000000     0.251280000000     0.591410000000     0.413407   
C423     C      0.502250000000     0.309770000000     0.668960000000     0.425084   
C424     C      0.502240000000     0.193220000000     0.669450000000     0.425248   
C425     C      0.752140000000     0.501260000000     0.747020000000     0.425601   
C426     C      0.752280000000     0.501700000000     0.591430000000     0.425577   
C427     C      0.752220000000     0.059770000000     0.669490000000     0.425196   
C428     C      0.752210000000     0.443210000000     0.668990000000     0.425348   
C429     C      0.752290000000     0.251740000000     0.747070000000     0.425653   
C430     C      0.752160000000     0.251280000000     0.591480000000     0.425541   
C431     C      0.752230000000     0.193230000000     0.669520000000     0.425146   
C432     C      0.752220000000     0.309770000000     0.669030000000     0.425133   
C433     C      0.720010000000     0.376490000000     0.668890000000    -0.000572924
C434     C      0.752210000000     0.409070000000     0.668920000000    -0.10627    
C435     C      0.784420000000     0.408690000000     0.668920000000    -0.000582515
C436     C      0.784420000000     0.376500000000     0.668900000000    -0.000593994
C437     C      0.752220000000     0.343910000000     0.668930000000    -0.106139   
C438     C      0.720010000000     0.344290000000     0.668920000000    -0.00071272 
C439     C      0.784420000000     0.126500000000     0.669600000000    -0.000509553
C440     C      0.752220000000     0.093910000000     0.669580000000    -0.106264   
C441     C      0.720020000000     0.094300000000     0.669610000000    -0.000615336
C442     C      0.720020000000     0.126500000000     0.669610000000    -0.000690638
C443     C      0.752220000000     0.159080000000     0.669610000000    -0.106097   
C444     C      0.784430000000     0.158700000000     0.669630000000    -0.000716272
C445     C      0.534460000000     0.408700000000     0.668870000000    -0.000586488
C446     C      0.002260000000     0.409080000000     0.668880000000    -0.116228   
C447     C      0.970050000000     0.376500000000     0.668850000000     0.0103037  
C448     C      0.970050000000     0.344300000000     0.668870000000     0.0103056  
C449     C      0.002260000000     0.343920000000     0.668880000000    -0.116183   
C450     C      0.534460000000     0.376500000000     0.668850000000    -0.000680125
C451     C      0.534430000000     0.126480000000     0.669560000000    -0.000716371
C452     C      0.002220000000     0.093900000000     0.669550000000    -0.116163   
C453     C      0.970020000000     0.094280000000     0.669570000000     0.0102775  
C454     C      0.970030000000     0.126490000000     0.669550000000     0.0103081  
C455     C      0.002230000000     0.159070000000     0.669540000000    -0.116123   
C456     C      0.534430000000     0.158680000000     0.669570000000    -0.000625238
C457     C      0.780140000000     0.280080000000     0.857390000000     0.000787417
C458     C      0.752360000000     0.252110000000     0.879360000000    -0.105077   
C459     C      0.724550000000     0.224040000000     0.857530000000     0.000746957
C460     C      0.724300000000     0.224150000000     0.814500000000     0.00110567 
C461     C      0.752310000000     0.251880000000     0.792520000000    -0.106      
C462     C      0.780350000000     0.279740000000     0.814350000000     0.00118567 
C463     C      0.779880000000     0.028950000000     0.857480000000     0.00088717 
C464     C      0.752070000000     0.500890000000     0.879310000000    -0.104913   
C465     C      0.724290000000     0.472920000000     0.857340000000     0.000612806
C466     C      0.724080000000     0.473260000000     0.814300000000     0.00116212 
C467     C      0.752110000000     0.501120000000     0.792470000000    -0.106036   
C468     C      0.780140000000     0.028830000000     0.814440000000     0.00112707 
C469     C      0.909650000000     0.284370000000     0.002550000000    -0.000833847
C470     C      0.910030000000     0.252170000000     0.002560000000    -0.104632   
C471     C      0.877450000000     0.219970000000     0.002570000000    -0.00093438 
C472     C      0.845250000000     0.219970000000     0.002550000000    -0.00041606 
C473     C      0.844870000000     0.252170000000     0.002560000000    -0.106344   
C474     C      0.877450000000     0.284370000000     0.002570000000    -7.04707e-05
C475     C      0.627450000000     0.284370000000     0.002580000000    -0.000916058
C476     C      0.594870000000     0.252170000000     0.002550000000    -0.106526   
C477     C      0.595250000000     0.219970000000     0.002560000000    -0.000906588
C478     C      0.627450000000     0.219970000000     0.002610000000    -0.000976709
C479     C      0.660030000000     0.252170000000     0.002620000000    -0.106409   
C480     C      0.659650000000     0.284370000000     0.002600000000    -0.000981541
C481     C      0.530170000000     0.280080000000     0.857320000000     0.000639164
C482     C      0.002380000000     0.252100000000     0.879300000000    -0.115328   
C483     C      0.974570000000     0.224030000000     0.857460000000     0.011738   
C484     C      0.974330000000     0.224150000000     0.814430000000     0.0122057  
C485     C      0.002340000000     0.251880000000     0.792450000000    -0.116216   
C486     C      0.530370000000     0.279740000000     0.814280000000     0.00116026 
C487     C      0.909190000000     0.033030000000     0.002540000000    -0.000838079
C488     C      0.909590000000     0.500830000000     0.002530000000    -0.104702   
C489     C      0.877000000000     0.468620000000     0.002550000000    -0.000968664
C490     C      0.844810000000     0.468620000000     0.002550000000    -0.000431503
C491     C      0.844420000000     0.500830000000     0.002560000000    -0.106436   
C492     C      0.876990000000     0.033030000000     0.002580000000     5.62579e-05
C493     C      0.594800000000     0.468620000000     0.002580000000    -0.000955658
C494     C      0.594420000000     0.500830000000     0.002590000000    -0.106526   
C495     C      0.626990000000     0.033030000000     0.002560000000    -0.00092884 
C496     C      0.659190000000     0.033030000000     0.002520000000    -0.000879574
C497     C      0.659590000000     0.500830000000     0.002550000000    -0.106484   
C498     C      0.627000000000     0.468620000000     0.002580000000    -0.000996523
C499     C      0.974320000000     0.472910000000     0.857340000000     0.0116676  
C500     C      0.502060000000     0.000880000000     0.879310000000    -0.105418   
C501     C      0.529870000000     0.028950000000     0.857480000000     0.000700043
C502     C      0.530130000000     0.028830000000     0.814450000000     0.00115979 
C503     C      0.502110000000     0.001100000000     0.792470000000    -0.106517   
C504     C      0.974120000000     0.473250000000     0.814300000000     0.0122458  
C505     C      0.779900000000     0.250980000000     0.481080000000     0.000792494
C506     C      0.752110000000     0.251220000000     0.459190000000    -0.105955   
C507     C      0.724310000000     0.251430000000     0.481100000000     0.000727238
C508     C      0.724090000000     0.250970000000     0.524140000000     0.000841376
C509     C      0.752120000000     0.251210000000     0.546030000000    -0.106065   
C510     C      0.780130000000     0.251430000000     0.524120000000     0.000939321
C511     C      0.752240000000     0.279750000000     0.190890000000     0.000948912
C512     C      0.752440000000     0.251900000000     0.212700000000    -0.105836   
C513     C      0.752700000000     0.224160000000     0.190700000000     0.000862514
C514     C      0.752280000000     0.224040000000     0.147670000000     0.000976059
C515     C      0.752510000000     0.252100000000     0.125860000000    -0.105805   
C516     C      0.752730000000     0.280080000000     0.147850000000     0.000875666
C517     C      0.780150000000     0.001590000000     0.481050000000     0.000924586
C518     C      0.752350000000     0.501760000000     0.459140000000    -0.105895   
C519     C      0.724560000000     0.502000000000     0.481020000000     0.000755564
C520     C      0.724320000000     0.501550000000     0.524060000000     0.000806514
C521     C      0.752320000000     0.501760000000     0.545980000000    -0.106051   
C522     C      0.780370000000     0.002040000000     0.524080000000     0.00067402 
C523     C      0.751760000000     0.028850000000     0.190640000000     0.0010108  
C524     C      0.752060000000     0.501110000000     0.212640000000    -0.105862   
C525     C      0.752260000000     0.473260000000     0.190830000000     0.000927333
C526     C      0.751750000000     0.472930000000     0.147800000000     0.000902086
C527     C      0.751970000000     0.500910000000     0.125800000000    -0.105843   
C528     C      0.752170000000     0.028970000000     0.147610000000     0.000932441
C529     C      0.474100000000     0.250970000000     0.524070000000     0.000766871
C530     C      0.002130000000     0.251210000000     0.545960000000    -0.116068   
C531     C      0.030140000000     0.251420000000     0.524040000000     0.00086413 
C532     C      0.029890000000     0.250970000000     0.481000000000     0.000993196
C533     C      0.002100000000     0.251220000000     0.459120000000    -0.116284   
C534     C      0.474310000000     0.251430000000     0.481040000000     0.000844276
C535     C      0.877210000000     0.158710000000     0.335570000000    -0.000694904
C536     C      0.909800000000     0.159100000000     0.335590000000    -0.104467   
C537     C      0.909420000000     0.126510000000     0.335580000000    -0.000561998
C538     C      0.877230000000     0.094310000000     0.335560000000     0.000187142
C539     C      0.844640000000     0.093920000000     0.335590000000    -0.106129   
C540     C      0.845020000000     0.126510000000     0.335580000000    -0.00016913 
C541     C      0.627230000000     0.344290000000     0.336160000000    -0.000637914
C542     C      0.594650000000     0.343920000000     0.336160000000    -0.106392   
C543     C      0.595040000000     0.376510000000     0.336190000000    -0.000649982
C544     C      0.627240000000     0.408700000000     0.336170000000    -0.00064705 
C545     C      0.659820000000     0.409070000000     0.336160000000    -0.106352   
C546     C      0.659430000000     0.376480000000     0.336180000000    -0.000658839
C547     C      0.002210000000     0.279740000000     0.190820000000    -0.00175628 
C548     C      0.002410000000     0.251890000000     0.212630000000    -0.103538   
C549     C      0.502670000000     0.224150000000     0.190630000000     0.000734787
C550     C      0.502250000000     0.224030000000     0.147600000000     0.000814299
C551     C      0.002490000000     0.252100000000     0.125790000000    -0.103493   
C552     C      0.002710000000     0.280070000000     0.147780000000    -0.00129254 
C553     C      0.030420000000     0.502050000000     0.524090000000     0.00095497 
C554     C      0.502340000000     0.001770000000     0.545980000000    -0.105892   
C555     C      0.474340000000     0.001550000000     0.524060000000     0.00071082 
C556     C      0.474580000000     0.002010000000     0.481030000000     0.000708917
C557     C      0.002370000000     0.001770000000     0.459140000000    -0.116103   
C558     C      0.030200000000     0.501590000000     0.481050000000     0.000921937
C559     C      0.877250000000     0.408720000000     0.336230000000    -0.00069254 
C560     C      0.909830000000     0.409090000000     0.336220000000    -0.104403   
C561     C      0.909450000000     0.376510000000     0.336240000000    -0.000522894
C562     C      0.877250000000     0.344310000000     0.336230000000     0.000104167
C563     C      0.844660000000     0.343940000000     0.336230000000    -0.106007   
C564     C      0.845050000000     0.376520000000     0.336260000000    -0.000166053
C565     C      0.627240000000     0.158710000000     0.335620000000    -0.000759954
C566     C      0.659830000000     0.159100000000     0.335640000000    -0.106169   
C567     C      0.659460000000     0.126520000000     0.335630000000    -0.000745373
C568     C      0.627260000000     0.094310000000     0.335610000000    -0.000616281
C569     C      0.594670000000     0.093920000000     0.335630000000    -0.106419   
C570     C      0.595050000000     0.126510000000     0.335630000000    -0.000628997
C571     C      0.002230000000     0.473260000000     0.190840000000    -0.00134599 
C572     C      0.002060000000     0.001130000000     0.212650000000    -0.103961   
C573     C      0.501800000000     0.028860000000     0.190650000000     0.000900325
C574     C      0.502200000000     0.028990000000     0.147620000000     0.000700028
C575     C      0.501960000000     0.000920000000     0.125810000000    -0.106211   
C576     C      0.001730000000     0.472930000000     0.147800000000    -0.00171552 
C577     C      0.002120000000     0.501250000000     0.258100000000     0.409784   
C578     C      0.002370000000     0.501730000000     0.413690000000     0.413514   
C579     C      0.943980000000     0.943230000000     0.336090000000     0.424827   
C580     C      0.560530000000     0.559780000000     0.335660000000     0.424796   
C581     C      0.002340000000     0.751750000000     0.258120000000     0.410048   
C582     C      0.002130000000     0.751300000000     0.413720000000     0.412891   
C583     C      0.943950000000     0.693230000000     0.335710000000     0.424789   
C584     C      0.560490000000     0.809790000000     0.336130000000     0.425434   
C585     C      0.752100000000     0.001260000000     0.258090000000     0.425517   
C586     C      0.752330000000     0.001720000000     0.413680000000     0.425212   
C587     C      0.810510000000     0.559760000000     0.335690000000     0.425407   
C588     C      0.693950000000     0.943230000000     0.336110000000     0.425424   
C589     C      0.752370000000     0.751760000000     0.258030000000     0.425511   
C590     C      0.752140000000     0.751310000000     0.413630000000     0.425512   
C591     C      0.810520000000     0.809790000000     0.336050000000     0.425294   
C592     C      0.693970000000     0.693250000000     0.335610000000     0.4248     
C593     C      0.943710000000     0.000830000000     0.002540000000     0.423879   
C594     C      0.560260000000     0.000830000000     0.002580000000     0.424254   
C595     C      0.502050000000     0.500840000000     0.924760000000     0.424885   
C596     C      0.501980000000     0.500860000000     0.080360000000     0.425197   
C597     C      0.560730000000     0.752170000000     0.002570000000     0.424606   
C598     C      0.944180000000     0.752170000000     0.002600000000     0.424381   
C599     C      0.002470000000     0.752140000000     0.080380000000     0.409828   
C600     C      0.002420000000     0.752150000000     0.924790000000     0.412922   
C601     C      0.810280000000     0.500830000000     0.002570000000     0.424825   
C602     C      0.693730000000     0.500830000000     0.002540000000     0.424563   
C603     C      0.752020000000     0.000840000000     0.924750000000     0.424515   
C604     C      0.751960000000     0.000860000000     0.080350000000     0.424943   
C605     C      0.694180000000     0.752170000000     0.002540000000     0.42463    
C606     C      0.810730000000     0.752170000000     0.002470000000     0.42478    
C607     C      0.752490000000     0.752150000000     0.080300000000     0.425312   
C608     C      0.752410000000     0.752150000000     0.924700000000     0.425206   
C609     C      0.502190000000     0.501250000000     0.747030000000     0.425642   
C610     C      0.502340000000     0.501720000000     0.591430000000     0.425552   
C611     C      0.002220000000     0.943200000000     0.668990000000     0.412983   
C612     C      0.002260000000     0.559770000000     0.669480000000     0.413149   
C613     C      0.002320000000     0.751740000000     0.747050000000     0.413467   
C614     C      0.002170000000     0.751280000000     0.591460000000     0.41347    
C615     C      0.502240000000     0.809770000000     0.669010000000     0.42512    
C616     C      0.502250000000     0.693220000000     0.669500000000     0.425032   
C617     C      0.752150000000     0.001240000000     0.747020000000     0.425108   
C618     C      0.752290000000     0.001720000000     0.591420000000     0.424927   
C619     C      0.752210000000     0.559760000000     0.669450000000     0.424822   
C620     C      0.752220000000     0.943220000000     0.668960000000     0.425462   
C621     C      0.752290000000     0.751740000000     0.746960000000     0.425598   
C622     C      0.752160000000     0.751280000000     0.591360000000     0.42546    
C623     C      0.752220000000     0.693220000000     0.669410000000     0.425058   
C624     C      0.752230000000     0.809780000000     0.668920000000     0.425112   
C625     C      0.720020000000     0.876490000000     0.668820000000    -0.000581873
C626     C      0.752220000000     0.909080000000     0.668860000000    -0.106264   
C627     C      0.784420000000     0.908700000000     0.668840000000    -0.000479126
C628     C      0.784430000000     0.876500000000     0.668810000000    -0.000658079
C629     C      0.752220000000     0.843910000000     0.668830000000    -0.106176   
C630     C      0.720020000000     0.844300000000     0.668830000000    -0.000636421
C631     C      0.784420000000     0.626490000000     0.669530000000    -0.000754088
C632     C      0.752210000000     0.593910000000     0.669530000000    -0.105923   
C633     C      0.720010000000     0.594290000000     0.669550000000    -0.000742761
C634     C      0.720010000000     0.626490000000     0.669520000000    -0.0006481  
C635     C      0.752220000000     0.659080000000     0.669510000000    -0.106208   
C636     C      0.784420000000     0.658690000000     0.669540000000    -0.000520053
C637     C      0.534430000000     0.908690000000     0.668910000000    -0.000674657
C638     C      0.002230000000     0.909060000000     0.668910000000    -0.116071   
C639     C      0.970020000000     0.876480000000     0.668880000000     0.010177   
C640     C      0.970030000000     0.844280000000     0.668910000000     0.0104149  
C641     C      0.002240000000     0.843900000000     0.668920000000    -0.116343   
C642     C      0.534440000000     0.876490000000     0.668890000000    -0.00055978 
C643     C      0.534460000000     0.626500000000     0.669590000000    -0.000599595
C644     C      0.002260000000     0.593910000000     0.669570000000    -0.116312   
C645     C      0.970060000000     0.594300000000     0.669610000000     0.0103713  
C646     C      0.970060000000     0.626490000000     0.669590000000     0.0102727  
C647     C      0.002260000000     0.659080000000     0.669580000000    -0.116176   
C648     C      0.534460000000     0.658700000000     0.669610000000    -0.000702733
C649     C      0.780140000000     0.780080000000     0.857270000000     0.000818703
C650     C      0.752360000000     0.752110000000     0.879250000000    -0.105188   
C651     C      0.724550000000     0.724040000000     0.857420000000     0.000793947
C652     C      0.724300000000     0.724160000000     0.814390000000     0.0010788  
C653     C      0.752320000000     0.751890000000     0.792410000000    -0.105999   
C654     C      0.780350000000     0.779740000000     0.814240000000     0.00120634 
C655     C      0.779880000000     0.528970000000     0.857480000000     0.000711069
C656     C      0.752070000000     0.000880000000     0.879310000000    -0.10551    
C657     C      0.724290000000     0.972910000000     0.857330000000     0.00113854 
C658     C      0.724080000000     0.973240000000     0.814300000000     0.00138244 
C659     C      0.752120000000     0.001100000000     0.792470000000    -0.106274   
C660     C      0.780130000000     0.528850000000     0.814450000000     0.00124006 
C661     C      0.909660000000     0.784380000000     0.002540000000    -0.00083692 
C662     C      0.910040000000     0.752170000000     0.002570000000    -0.104732   
C663     C      0.877450000000     0.719970000000     0.002550000000    -0.000905305
C664     C      0.845250000000     0.719970000000     0.002500000000    -0.000404203
C665     C      0.844870000000     0.752170000000     0.002490000000    -0.10642    
C666     C      0.877460000000     0.784380000000     0.002520000000    -8.63642e-05
C667     C      0.627460000000     0.784370000000     0.002570000000    -0.000892418
C668     C      0.594870000000     0.752170000000     0.002560000000    -0.106548   
C669     C      0.595250000000     0.719970000000     0.002550000000    -0.000912037
C670     C      0.627450000000     0.719970000000     0.002560000000    -0.000946936
C671     C      0.660040000000     0.752170000000     0.002550000000    -0.106493   
C672     C      0.659660000000     0.784380000000     0.002540000000    -0.00101504 
C673     C      0.530170000000     0.780080000000     0.857360000000     0.000727321
C674     C      0.002390000000     0.752110000000     0.879340000000    -0.115389   
C675     C      0.974580000000     0.724030000000     0.857510000000     0.0117732  
C676     C      0.974330000000     0.724150000000     0.814480000000     0.0121074  
C677     C      0.002350000000     0.751880000000     0.792500000000    -0.116079   
C678     C      0.530380000000     0.779740000000     0.814330000000     0.00108579 
C679     C      0.909210000000     0.533030000000     0.002520000000    -0.000812897
C680     C      0.909570000000     0.000830000000     0.002550000000    -0.104993   
C681     C      0.876980000000     0.968620000000     0.002570000000    -0.000671478
C682     C      0.844790000000     0.968620000000     0.002570000000    -2.52799e-05
C683     C      0.844400000000     0.000830000000     0.002580000000    -0.106891   
C684     C      0.877010000000     0.533030000000     0.002560000000    -2.15053e-05
C685     C      0.594780000000     0.968620000000     0.002550000000    -0.000625455
C686     C      0.594400000000     0.000830000000     0.002570000000    -0.106842   
C687     C      0.627010000000     0.533030000000     0.002590000000    -0.000910833
C688     C      0.659210000000     0.533030000000     0.002550000000    -0.000945767
C689     C      0.659570000000     0.000830000000     0.002530000000    -0.106938   
C690     C      0.626980000000     0.968620000000     0.002550000000    -0.00058476 
C691     C      0.974280000000     0.972910000000     0.857340000000     0.0120128  
C692     C      0.502100000000     0.500890000000     0.879310000000    -0.105093   
C693     C      0.529910000000     0.528950000000     0.857490000000     0.000721187
C694     C      0.530170000000     0.528830000000     0.814450000000     0.00114187 
C695     C      0.502150000000     0.501100000000     0.792470000000    -0.106195   
C696     C      0.974080000000     0.973240000000     0.814300000000     0.0124878  
C697     C      0.779900000000     0.750980000000     0.480970000000     0.000860007
C698     C      0.752110000000     0.751220000000     0.459070000000    -0.106064   
C699     C      0.724310000000     0.751430000000     0.480990000000     0.000781832
C700     C      0.724090000000     0.750970000000     0.524020000000     0.000834812
C701     C      0.752120000000     0.751210000000     0.545910000000    -0.10603    
C702     C      0.780130000000     0.751430000000     0.524000000000     0.000903838
C703     C      0.752240000000     0.779750000000     0.190770000000     0.000912231
C704     C      0.752440000000     0.751900000000     0.212580000000    -0.10583    
C705     C      0.752700000000     0.724160000000     0.190590000000     0.000829724
C706     C      0.752280000000     0.724040000000     0.147560000000     0.00104913 
C707     C      0.752520000000     0.752100000000     0.125740000000    -0.105936   
C708     C      0.752740000000     0.780080000000     0.147740000000     0.000944138
C709     C      0.780150000000     0.501550000000     0.481050000000     0.000759925
C710     C      0.752360000000     0.001800000000     0.459130000000    -0.106026   
C711     C      0.724560000000     0.002040000000     0.481020000000     0.000754863
C712     C      0.724320000000     0.001590000000     0.524060000000     0.000619029
C713     C      0.752330000000     0.001800000000     0.545970000000    -0.105847   
C714     C      0.780360000000     0.502010000000     0.524090000000     0.000932718
C715     C      0.751790000000     0.528850000000     0.190650000000     0.000816402
C716     C      0.752020000000     0.001120000000     0.212640000000    -0.106367   
C717     C      0.752220000000     0.973260000000     0.190830000000     0.00134267 
C718     C      0.751720000000     0.972930000000     0.147790000000     0.00118584 
C719     C      0.751930000000     0.000910000000     0.125800000000    -0.106109   
C720     C      0.752210000000     0.528970000000     0.147620000000     0.00102267 
C721     C      0.474090000000     0.750960000000     0.524120000000     0.000793082
C722     C      0.002130000000     0.751210000000     0.546010000000    -0.116123   
C723     C      0.030140000000     0.751430000000     0.524090000000     0.000985275
C724     C      0.029900000000     0.750980000000     0.481050000000     0.000839456
C725     C      0.002100000000     0.751220000000     0.459170000000    -0.116138   
C726     C      0.474310000000     0.751420000000     0.481090000000     0.000787708
C727     C      0.877220000000     0.658690000000     0.335610000000    -0.000735457
C728     C      0.909810000000     0.659080000000     0.335630000000    -0.10439    
C729     C      0.909440000000     0.626500000000     0.335620000000    -0.000634771
C730     C      0.877240000000     0.594300000000     0.335600000000     0.000270121
C731     C      0.844650000000     0.593910000000     0.335620000000    -0.106213   
C732     C      0.845030000000     0.626490000000     0.335620000000    -0.000108038
C733     C      0.627220000000     0.844310000000     0.336200000000    -0.000597892
C734     C      0.594630000000     0.843930000000     0.336200000000    -0.106345   
C735     C      0.595020000000     0.876520000000     0.336220000000    -0.000660081
C736     C      0.627220000000     0.908710000000     0.336200000000    -0.000628437
C737     C      0.659800000000     0.909090000000     0.336190000000    -0.106238   
C738     C      0.659420000000     0.876500000000     0.336220000000    -0.000738245
C739     C      0.002210000000     0.779740000000     0.190860000000    -0.00172823 
C740     C      0.002410000000     0.751890000000     0.212670000000    -0.10357    
C741     C      0.502670000000     0.724150000000     0.190680000000     0.000759975
C742     C      0.502260000000     0.724030000000     0.147650000000     0.000786587
C743     C      0.002490000000     0.752090000000     0.125830000000    -0.103479   
C744     C      0.002710000000     0.780070000000     0.147830000000    -0.00133719 
C745     C      0.030380000000     0.002010000000     0.524090000000     0.000916499
C746     C      0.502380000000     0.501800000000     0.545980000000    -0.106054   
C747     C      0.474370000000     0.501590000000     0.524070000000     0.00074582 
C748     C      0.474610000000     0.502050000000     0.481030000000     0.000848118
C749     C      0.002400000000     0.501810000000     0.459140000000    -0.116356   
C750     C      0.030170000000     0.001560000000     0.481060000000     0.000788611
C751     C      0.877260000000     0.908710000000     0.336160000000    -0.000583989
C752     C      0.909840000000     0.909090000000     0.336160000000    -0.104437   
C753     C      0.909450000000     0.876500000000     0.336180000000    -0.000542547
C754     C      0.877250000000     0.844310000000     0.336140000000     0.000203523
C755     C      0.844670000000     0.843930000000     0.336130000000    -0.10609    
C756     C      0.845060000000     0.876520000000     0.336170000000    -0.000165369
C757     C      0.627240000000     0.658710000000     0.335530000000    -0.000680484
C758     C      0.659830000000     0.659100000000     0.335540000000    -0.106143   
C759     C      0.659450000000     0.626520000000     0.335540000000    -0.000669762
C760     C      0.627260000000     0.594320000000     0.335540000000    -0.000768783
C761     C      0.594670000000     0.593930000000     0.335570000000    -0.106082   
C762     C      0.595040000000     0.626510000000     0.335560000000    -0.000779761
C763     C      0.002260000000     0.973280000000     0.190840000000    -0.000833929
C764     C      0.002040000000     0.501110000000     0.212650000000    -0.103418   
C765     C      0.501770000000     0.528850000000     0.190650000000     0.000648802
C766     C      0.502190000000     0.528970000000     0.147620000000     0.000862012
C767     C      0.501950000000     0.500900000000     0.125810000000    -0.106013   
C768     C      0.001750000000     0.972940000000     0.147800000000    -0.00154602 
H1       H      0.194700000000     0.375760000000     0.668900000000     0.0367191  
H2       H      0.309720000000     0.433280000000     0.668920000000     0.0367811  
H3       H      0.309730000000     0.377220000000     0.668920000000     0.0367566  
H4       H      0.194710000000     0.319700000000     0.668920000000     0.0367412  
H5       H      0.309730000000     0.127220000000     0.669600000000     0.0367276  
H6       H      0.194710000000     0.069710000000     0.669600000000     0.0366574  
H7       H      0.194710000000     0.125780000000     0.669610000000     0.0367182  
H8       H      0.309730000000     0.183280000000     0.669620000000     0.0368043  
H9       H      0.059770000000     0.433280000000     0.668880000000     0.0362887  
H10      H      0.444750000000     0.375770000000     0.668870000000     0.0367444  
H11      H      0.444740000000     0.319710000000     0.668870000000     0.0367649  
H12      H      0.059770000000     0.377220000000     0.668870000000     0.0363005  
H13      H      0.059740000000     0.127200000000     0.669560000000     0.0362936  
H14      H      0.444710000000     0.069700000000     0.669560000000     0.0367192  
H15      H      0.444720000000     0.125770000000     0.669540000000     0.0367257  
H16      H      0.059740000000     0.183270000000     0.669560000000     0.0363209  
H17      H      0.301990000000     0.301970000000     0.873460000000     0.0383279  
H18      H      0.202720000000     0.202210000000     0.873720000000     0.0381658  
H19      H      0.202430000000     0.202280000000     0.798430000000     0.0376924  
H20      H      0.302200000000     0.301530000000     0.798150000000     0.037814   
H21      H      0.301710000000     0.050770000000     0.873660000000     0.0383083  
H22      H      0.202450000000     0.451030000000     0.873410000000     0.0382053  
H23      H      0.202230000000     0.451470000000     0.798100000000     0.0376684  
H24      H      0.302000000000     0.050700000000     0.798370000000     0.0378029  
H25      H      0.434240000000     0.309680000000     0.002560000000     0.0362615  
H26      H      0.376730000000     0.194660000000     0.002560000000     0.0363925  
H27      H      0.320660000000     0.194660000000     0.002560000000     0.036442   
H28      H      0.378180000000     0.309680000000     0.002570000000     0.0363057  
H29      H      0.128180000000     0.309680000000     0.002570000000     0.0361297  
H30      H      0.070670000000     0.194660000000     0.002550000000     0.0349715  
H31      H      0.126730000000     0.194660000000     0.002620000000     0.0361863  
H32      H      0.184240000000     0.309680000000     0.002620000000     0.0363337  
H33      H      0.052010000000     0.301970000000     0.873400000000     0.0376802  
H34      H      0.452750000000     0.202210000000     0.873650000000     0.0383326  
H35      H      0.452460000000     0.202270000000     0.798360000000     0.0378023  
H36      H      0.052230000000     0.301520000000     0.798090000000     0.0371774  
H37      H      0.433770000000     0.058340000000     0.002540000000     0.0364153  
H38      H      0.376280000000     0.443320000000     0.002540000000     0.0363214  
H39      H      0.320220000000     0.443320000000     0.002560000000     0.0363114  
H40      H      0.377710000000     0.058340000000     0.002570000000     0.0363718  
H41      H      0.070220000000     0.443320000000     0.002590000000     0.0348595  
H42      H      0.127710000000     0.058340000000     0.002560000000     0.0362332  
H43      H      0.183770000000     0.058340000000     0.002520000000     0.0364217  
H44      H      0.126280000000     0.443320000000     0.002570000000     0.0360971  
H45      H      0.452470000000     0.451020000000     0.873410000000     0.0383358  
H46      H      0.051700000000     0.050780000000     0.873670000000     0.0376535  
H47      H      0.052000000000     0.050710000000     0.798380000000     0.0371487  
H48      H      0.452270000000     0.451460000000     0.798100000000     0.0377827  
H49      H      0.301740000000     0.250970000000     0.464940000000     0.0376678  
H50      H      0.202480000000     0.251470000000     0.464980000000     0.0375264  
H51      H      0.202230000000     0.250950000000     0.540270000000     0.0375132  
H52      H      0.302000000000     0.251460000000     0.540250000000     0.0376294  
H53      H      0.252190000000     0.301540000000     0.207100000000     0.0376755  
H54      H      0.252710000000     0.202290000000     0.206760000000     0.0376913  
H55      H      0.252270000000     0.202210000000     0.131470000000     0.0376403  
H56      H      0.252760000000     0.301970000000     0.131790000000     0.0376583  
H57      H      0.301990000000     0.001550000000     0.464920000000     0.0375506  
H58      H      0.202720000000     0.502020000000     0.464880000000     0.0374952  
H59      H      0.202450000000     0.501510000000     0.540180000000     0.0375354  
H60      H      0.302220000000     0.002060000000     0.540220000000     0.0376377  
H61      H      0.251750000000     0.050730000000     0.206700000000     0.0376129  
H62      H      0.252300000000     0.451470000000     0.207040000000     0.037648   
H63      H      0.251720000000     0.451040000000     0.131730000000     0.0376642  
H64      H      0.252180000000     0.050800000000     0.131410000000     0.0376418  
H65      H      0.952240000000     0.250960000000     0.540220000000     0.0370747  
H66      H      0.552000000000     0.251450000000     0.540160000000     0.0376481  
H67      H      0.551730000000     0.250950000000     0.464860000000     0.0375954  
H68      H      0.952480000000     0.251470000000     0.464920000000     0.0369378  
H69      H      0.376490000000     0.183290000000     0.335580000000     0.0367462  
H70      H      0.434010000000     0.125790000000     0.335580000000     0.0367115  
H71      H      0.377950000000     0.069720000000     0.335570000000     0.0366317  
H72      H      0.320430000000     0.127230000000     0.335590000000     0.0367048  
H73      H      0.127940000000     0.319700000000     0.336160000000     0.0365564  
H74      H      0.070450000000     0.377240000000     0.336180000000     0.0352252  
H75      H      0.126520000000     0.433290000000     0.336170000000     0.0364858  
H76      H      0.184010000000     0.375750000000     0.336170000000     0.0367401  
H77      H      0.502160000000     0.301530000000     0.207030000000     0.037651   
H78      H      0.002670000000     0.202280000000     0.206690000000     0.0361587  
H79      H      0.002240000000     0.202200000000     0.131400000000     0.0354158  
H80      H      0.502740000000     0.301960000000     0.131720000000     0.0376389  
H81      H      0.552270000000     0.502060000000     0.540230000000     0.0376268  
H82      H      0.952470000000     0.001520000000     0.540190000000     0.0369802  
H83      H      0.952740000000     0.002030000000     0.464880000000     0.0368921  
H84      H      0.552030000000     0.501560000000     0.464930000000     0.037619   
H85      H      0.376540000000     0.433310000000     0.336220000000     0.0367402  
H86      H      0.434030000000     0.375780000000     0.336230000000     0.0366888  
H87      H      0.377960000000     0.319720000000     0.336230000000     0.0367776  
H88      H      0.320470000000     0.377250000000     0.336250000000     0.0367384  
H89      H      0.126510000000     0.183290000000     0.335630000000     0.0365174  
H90      H      0.184040000000     0.125800000000     0.335630000000     0.0367713  
H91      H      0.127990000000     0.069730000000     0.335620000000     0.0364843  
H92      H      0.070460000000     0.127220000000     0.335630000000     0.0352574  
H93      H      0.502280000000     0.451470000000     0.207050000000     0.0376749  
H94      H      0.001790000000     0.050740000000     0.206710000000     0.035388   
H95      H      0.002210000000     0.050810000000     0.131420000000     0.036136   
H96      H      0.501700000000     0.451030000000     0.131740000000     0.0376148  
H97      H      0.194710000000     0.875770000000     0.668840000000     0.0367461  
H98      H      0.309730000000     0.933280000000     0.668850000000     0.0368536  
H99      H      0.309730000000     0.877220000000     0.668820000000     0.036788   
H100     H      0.194710000000     0.819710000000     0.668830000000     0.036714   
H101     H      0.309720000000     0.627210000000     0.669530000000     0.0367862  
H102     H      0.194700000000     0.569710000000     0.669530000000     0.0367232  
H103     H      0.194710000000     0.625780000000     0.669510000000     0.0367168  
H104     H      0.309730000000     0.683280000000     0.669530000000     0.0367551  
H105     H      0.059740000000     0.933270000000     0.668910000000     0.0363719  
H106     H      0.444720000000     0.875750000000     0.668890000000     0.0368039  
H107     H      0.444720000000     0.819690000000     0.668910000000     0.0367356  
H108     H      0.059750000000     0.877220000000     0.668910000000     0.0363091  
H109     H      0.059770000000     0.627230000000     0.669580000000     0.0362779  
H110     H      0.444750000000     0.569710000000     0.669590000000     0.0367344  
H111     H      0.444750000000     0.625770000000     0.669590000000     0.0367903  
H112     H      0.059770000000     0.683290000000     0.669600000000     0.0363043  
H113     H      0.301990000000     0.801970000000     0.873350000000     0.0383248  
H114     H      0.202730000000     0.702210000000     0.873610000000     0.0381683  
H115     H      0.202430000000     0.702280000000     0.798320000000     0.0376831  
H116     H      0.302200000000     0.801530000000     0.798040000000     0.0378209  
H117     H      0.301710000000     0.550790000000     0.873660000000     0.0383601  
H118     H      0.202440000000     0.951010000000     0.873410000000     0.0381443  
H119     H      0.202230000000     0.951450000000     0.798100000000     0.0376451  
H120     H      0.302000000000     0.550720000000     0.798370000000     0.0378189  
H121     H      0.434240000000     0.809680000000     0.002560000000     0.0363001  
H122     H      0.376730000000     0.694660000000     0.002560000000     0.0364055  
H123     H      0.320670000000     0.694660000000     0.002490000000     0.0364317  
H124     H      0.378180000000     0.809680000000     0.002500000000     0.0363227  
H125     H      0.128180000000     0.809680000000     0.002570000000     0.0361282  
H126     H      0.070670000000     0.694660000000     0.002550000000     0.034969   
H127     H      0.126730000000     0.694660000000     0.002550000000     0.0361771  
H128     H      0.184240000000     0.809680000000     0.002550000000     0.0363558  
H129     H      0.052010000000     0.801970000000     0.873450000000     0.0376671  
H130     H      0.452750000000     0.702210000000     0.873690000000     0.0383193  
H131     H      0.452460000000     0.702270000000     0.798410000000     0.0378289  
H132     H      0.052230000000     0.801530000000     0.798130000000     0.0371959  
H133     H      0.433790000000     0.558340000000     0.002520000000     0.036415   
H134     H      0.376260000000     0.943320000000     0.002570000000     0.0362917  
H135     H      0.320200000000     0.943320000000     0.002580000000     0.0362623  
H136     H      0.377730000000     0.558340000000     0.002560000000     0.0364024  
H137     H      0.070200000000     0.943320000000     0.002570000000     0.0348349  
H138     H      0.127730000000     0.558340000000     0.002580000000     0.0362369  
H139     H      0.183790000000     0.558340000000     0.002550000000     0.0364603  
H140     H      0.126260000000     0.943320000000     0.002550000000     0.0360535  
H141     H      0.452440000000     0.951020000000     0.873420000000     0.0383132  
H142     H      0.051740000000     0.550780000000     0.873670000000     0.0376615  
H143     H      0.052040000000     0.550710000000     0.798380000000     0.0371722  
H144     H      0.452230000000     0.951450000000     0.798110000000     0.0377682  
H145     H      0.301730000000     0.750960000000     0.464830000000     0.0376695  
H146     H      0.202480000000     0.751470000000     0.464860000000     0.0375233  
H147     H      0.202230000000     0.750960000000     0.540160000000     0.0375101  
H148     H      0.302000000000     0.751460000000     0.540130000000     0.0376406  
H149     H      0.252200000000     0.801540000000     0.206980000000     0.0376758  
H150     H      0.252710000000     0.702290000000     0.206640000000     0.0376957  
H151     H      0.252270000000     0.702210000000     0.131350000000     0.0376261  
H152     H      0.252770000000     0.801970000000     0.131670000000     0.0376679  
H153     H      0.301980000000     0.501520000000     0.464940000000     0.0376858  
H154     H      0.202730000000     0.002060000000     0.464880000000     0.0374485  
H155     H      0.202460000000     0.001550000000     0.540190000000     0.0374747  
H156     H      0.302210000000     0.502020000000     0.540230000000     0.0376523  
H157     H      0.251790000000     0.550720000000     0.206700000000     0.0376769  
H158     H      0.252270000000     0.951470000000     0.207040000000     0.0376133  
H159     H      0.251690000000     0.951040000000     0.131730000000     0.0376485  
H160     H      0.252220000000     0.550800000000     0.131410000000     0.0376413  
H161     H      0.952240000000     0.750950000000     0.540270000000     0.0370763  
H162     H      0.552010000000     0.751470000000     0.540210000000     0.0376237  
H163     H      0.551730000000     0.750960000000     0.464900000000     0.0376533  
H164     H      0.952470000000     0.751460000000     0.464970000000     0.036937   
H165     H      0.376490000000     0.683270000000     0.335620000000     0.0367327  
H166     H      0.434030000000     0.625790000000     0.335620000000     0.0367277  
H167     H      0.377970000000     0.569710000000     0.335610000000     0.0366914  
H168     H      0.320440000000     0.627200000000     0.335620000000     0.0367229  
H169     H      0.127940000000     0.819720000000     0.336200000000     0.0365438  
H170     H      0.070440000000     0.877240000000     0.336220000000     0.0353123  
H171     H      0.126500000000     0.933300000000     0.336200000000     0.0365395  
H172     H      0.184000000000     0.875780000000     0.336200000000     0.0367849  
H173     H      0.502160000000     0.801530000000     0.207070000000     0.0376506  
H174     H      0.002680000000     0.702280000000     0.206730000000     0.0361413  
H175     H      0.002250000000     0.702210000000     0.131440000000     0.0354273  
H176     H      0.502740000000     0.801960000000     0.131760000000     0.0376606  
H177     H      0.552230000000     0.002020000000     0.540240000000     0.0375916  
H178     H      0.952500000000     0.501550000000     0.540190000000     0.0370662  
H179     H      0.952770000000     0.502060000000     0.464890000000     0.0369185  
H180     H      0.552000000000     0.001520000000     0.464940000000     0.037546   
H181     H      0.376540000000     0.933310000000     0.336160000000     0.0367492  
H182     H      0.434030000000     0.875770000000     0.336170000000     0.0367057  
H183     H      0.377960000000     0.819720000000     0.336140000000     0.0367521  
H184     H      0.320470000000     0.877250000000     0.336150000000     0.036759   
H185     H      0.126510000000     0.683300000000     0.335540000000     0.0364874  
H186     H      0.184040000000     0.625800000000     0.335540000000     0.0367478  
H187     H      0.127980000000     0.569730000000     0.335550000000     0.0365752  
H188     H      0.070460000000     0.627230000000     0.335560000000     0.0352981  
H189     H      0.502310000000     0.951490000000     0.207050000000     0.0376062  
H190     H      0.001770000000     0.550720000000     0.206710000000     0.0354718  
H191     H      0.002200000000     0.550800000000     0.131420000000     0.0360892  
H192     H      0.501710000000     0.951050000000     0.131740000000     0.0376468  
H193     H      0.694700000000     0.375760000000     0.668900000000     0.0367001  
H194     H      0.809720000000     0.433280000000     0.668920000000     0.036931   
H195     H      0.809730000000     0.377220000000     0.668920000000     0.0369331  
H196     H      0.694710000000     0.319700000000     0.668920000000     0.0367515  
H197     H      0.809730000000     0.127220000000     0.669600000000     0.0368986  
H198     H      0.694710000000     0.069710000000     0.669600000000     0.0366636  
H199     H      0.694710000000     0.125780000000     0.669610000000     0.0367121  
H200     H      0.809730000000     0.183280000000     0.669620000000     0.0369645  
H201     H      0.559770000000     0.433280000000     0.668880000000     0.0366948  
H202     H      0.944750000000     0.375770000000     0.668870000000     0.0358125  
H203     H      0.944740000000     0.319710000000     0.668870000000     0.0358129  
H204     H      0.559770000000     0.377220000000     0.668870000000     0.0367293  
H205     H      0.559740000000     0.127200000000     0.669560000000     0.036725   
H206     H      0.944710000000     0.069700000000     0.669560000000     0.0357663  
H207     H      0.944720000000     0.125770000000     0.669540000000     0.0358004  
H208     H      0.559740000000     0.183270000000     0.669560000000     0.036726   
H209     H      0.801990000000     0.301970000000     0.873460000000     0.0385945  
H210     H      0.702720000000     0.202210000000     0.873720000000     0.0382867  
H211     H      0.702430000000     0.202280000000     0.798430000000     0.0377977  
H212     H      0.802200000000     0.301530000000     0.798150000000     0.0380929  
H213     H      0.801710000000     0.050770000000     0.873660000000     0.0385691  
H214     H      0.702450000000     0.451030000000     0.873410000000     0.0383218  
H215     H      0.702230000000     0.451470000000     0.798100000000     0.0377754  
H216     H      0.802000000000     0.050700000000     0.798370000000     0.0380976  
H217     H      0.934240000000     0.309680000000     0.002560000000     0.0384759  
H218     H      0.876730000000     0.194660000000     0.002560000000     0.0369727  
H219     H      0.820670000000     0.194660000000     0.002560000000     0.0365244  
H220     H      0.878180000000     0.309680000000     0.002570000000     0.036907   
H221     H      0.628170000000     0.309680000000     0.002570000000     0.0362655  
H222     H      0.570670000000     0.194660000000     0.002550000000     0.0363952  
H223     H      0.626730000000     0.194660000000     0.002620000000     0.0363795  
H224     H      0.684240000000     0.309680000000     0.002620000000     0.0363076  
H225     H      0.552010000000     0.301970000000     0.873400000000     0.038313   
H226     H      0.952740000000     0.202210000000     0.873650000000     0.0376145  
H227     H      0.952460000000     0.202270000000     0.798360000000     0.0372066  
H228     H      0.552230000000     0.301520000000     0.798090000000     0.0377669  
H229     H      0.933770000000     0.058340000000     0.002540000000     0.0386081  
H230     H      0.876280000000     0.443320000000     0.002540000000     0.0368777  
H231     H      0.820220000000     0.443320000000     0.002560000000     0.0363952  
H232     H      0.877710000000     0.058340000000     0.002570000000     0.0369826  
H233     H      0.570220000000     0.443320000000     0.002590000000     0.0362771  
H234     H      0.627710000000     0.058340000000     0.002560000000     0.0363674  
H235     H      0.683770000000     0.058340000000     0.002520000000     0.0363953  
H236     H      0.626280000000     0.443320000000     0.002570000000     0.0362854  
H237     H      0.952470000000     0.451020000000     0.873410000000     0.0376216  
H238     H      0.551700000000     0.050780000000     0.873670000000     0.0382815  
H239     H      0.552000000000     0.050710000000     0.798380000000     0.0377495  
H240     H      0.952270000000     0.451460000000     0.798100000000     0.0371986  
H241     H      0.801730000000     0.250970000000     0.464940000000     0.0379579  
H242     H      0.702480000000     0.251470000000     0.464980000000     0.0376434  
H243     H      0.702230000000     0.250950000000     0.540270000000     0.0376193  
H244     H      0.802000000000     0.251460000000     0.540250000000     0.0378991  
H245     H      0.752190000000     0.301540000000     0.207100000000     0.0378397  
H246     H      0.752710000000     0.202290000000     0.206760000000     0.0378563  
H247     H      0.752270000000     0.202210000000     0.131470000000     0.0378059  
H248     H      0.752760000000     0.301970000000     0.131790000000     0.0378241  
H249     H      0.801990000000     0.001550000000     0.464920000000     0.03782    
H250     H      0.702720000000     0.502020000000     0.464880000000     0.0376251  
H251     H      0.702450000000     0.501510000000     0.540180000000     0.0376111  
H252     H      0.802220000000     0.002060000000     0.540220000000     0.0379216  
H253     H      0.751750000000     0.050730000000     0.206700000000     0.0377792  
H254     H      0.752300000000     0.451470000000     0.207040000000     0.0378298  
H255     H      0.751720000000     0.451040000000     0.131730000000     0.0378212  
H256     H      0.752180000000     0.050800000000     0.131410000000     0.0377998  
H257     H      0.452250000000     0.250960000000     0.540220000000     0.0376516  
H258     H      0.052000000000     0.251450000000     0.540160000000     0.0370483  
H259     H      0.051730000000     0.250950000000     0.464860000000     0.0369764  
H260     H      0.452470000000     0.251470000000     0.464920000000     0.0376364  
H261     H      0.876490000000     0.183290000000     0.335580000000     0.0372964  
H262     H      0.934010000000     0.125790000000     0.335580000000     0.0388935  
H263     H      0.877950000000     0.069720000000     0.335570000000     0.0372939  
H264     H      0.820430000000     0.127230000000     0.335590000000     0.0368097  
H265     H      0.627940000000     0.319700000000     0.336160000000     0.036683   
H266     H      0.570460000000     0.377240000000     0.336180000000     0.0366768  
H267     H      0.626520000000     0.433290000000     0.336170000000     0.0366667  
H268     H      0.684010000000     0.375750000000     0.336170000000     0.0367125  
H269     H      0.002160000000     0.301530000000     0.207030000000     0.0354347  
H270     H      0.502670000000     0.202280000000     0.206690000000     0.0376711  
H271     H      0.502240000000     0.202200000000     0.131400000000     0.0376375  
H272     H      0.002740000000     0.301960000000     0.131720000000     0.0361213  
H273     H      0.052270000000     0.502060000000     0.540230000000     0.0370264  
H274     H      0.452470000000     0.001520000000     0.540190000000     0.0375749  
H275     H      0.452740000000     0.002030000000     0.464880000000     0.0375912  
H276     H      0.052030000000     0.501560000000     0.464930000000     0.0369969  
H277     H      0.876540000000     0.433310000000     0.336220000000     0.0372974  
H278     H      0.934030000000     0.375780000000     0.336230000000     0.0388984  
H279     H      0.877960000000     0.319720000000     0.336230000000     0.037376   
H280     H      0.820470000000     0.377250000000     0.336250000000     0.0368195  
H281     H      0.626510000000     0.183290000000     0.335630000000     0.0366996  
H282     H      0.684050000000     0.125800000000     0.335630000000     0.0367264  
H283     H      0.627990000000     0.069730000000     0.335620000000     0.0366221  
H284     H      0.570460000000     0.127220000000     0.335630000000     0.0366748  
H285     H      0.002280000000     0.451470000000     0.207050000000     0.0361484  
H286     H      0.501790000000     0.050740000000     0.206710000000     0.0376084  
H287     H      0.502210000000     0.050810000000     0.131420000000     0.0376648  
H288     H      0.001700000000     0.451030000000     0.131740000000     0.0353904  
H289     H      0.694710000000     0.875770000000     0.668840000000     0.036721   
H290     H      0.809730000000     0.933280000000     0.668850000000     0.0369689  
H291     H      0.809730000000     0.877220000000     0.668820000000     0.0369739  
H292     H      0.694710000000     0.819710000000     0.668830000000     0.0367291  
H293     H      0.809720000000     0.627210000000     0.669530000000     0.0369747  
H294     H      0.694700000000     0.569710000000     0.669530000000     0.036743   
H295     H      0.694710000000     0.625780000000     0.669510000000     0.036711   
H296     H      0.809730000000     0.683280000000     0.669530000000     0.0369143  
H297     H      0.559740000000     0.933270000000     0.668910000000     0.0367971  
H298     H      0.944720000000     0.875750000000     0.668890000000     0.0358525  
H299     H      0.944720000000     0.819690000000     0.668910000000     0.0357919  
H300     H      0.559750000000     0.877220000000     0.668910000000     0.0367285  
H301     H      0.559770000000     0.627230000000     0.669580000000     0.0366969  
H302     H      0.944750000000     0.569710000000     0.669590000000     0.035801   
H303     H      0.944750000000     0.625770000000     0.669590000000     0.0358188  
H304     H      0.559770000000     0.683290000000     0.669600000000     0.0367337  
H305     H      0.801990000000     0.801970000000     0.873350000000     0.0385899  
H306     H      0.702720000000     0.702210000000     0.873610000000     0.0382751  
H307     H      0.702430000000     0.702280000000     0.798320000000     0.037796   
H308     H      0.802200000000     0.801530000000     0.798040000000     0.0380943  
H309     H      0.801710000000     0.550790000000     0.873660000000     0.0386316  
H310     H      0.702440000000     0.951010000000     0.873410000000     0.0382494  
H311     H      0.702240000000     0.951450000000     0.798100000000     0.0377786  
H312     H      0.802000000000     0.550720000000     0.798370000000     0.038095   
H313     H      0.934240000000     0.809680000000     0.002560000000     0.0384829  
H314     H      0.876730000000     0.694660000000     0.002560000000     0.0369658  
H315     H      0.820670000000     0.694660000000     0.002490000000     0.036514   
H316     H      0.878180000000     0.809680000000     0.002500000000     0.0369186  
H317     H      0.628180000000     0.809680000000     0.002570000000     0.0362655  
H318     H      0.570670000000     0.694660000000     0.002550000000     0.0363912  
H319     H      0.626730000000     0.694660000000     0.002550000000     0.0363719  
H320     H      0.684240000000     0.809680000000     0.002550000000     0.0363277  
H321     H      0.552010000000     0.801970000000     0.873450000000     0.0382901  
H322     H      0.952750000000     0.702210000000     0.873690000000     0.0376035  
H323     H      0.952460000000     0.702270000000     0.798410000000     0.0372426  
H324     H      0.552230000000     0.801530000000     0.798130000000     0.0377965  
H325     H      0.933790000000     0.558340000000     0.002520000000     0.0386116  
H326     H      0.876260000000     0.943320000000     0.002570000000     0.0368478  
H327     H      0.820200000000     0.943320000000     0.002580000000     0.0363436  
H328     H      0.877730000000     0.558340000000     0.002560000000     0.0370152  
H329     H      0.570200000000     0.943320000000     0.002570000000     0.0362507  
H330     H      0.627730000000     0.558340000000     0.002580000000     0.0363723  
H331     H      0.683790000000     0.558340000000     0.002550000000     0.0364334  
H332     H      0.626260000000     0.943320000000     0.002550000000     0.0362367  
H333     H      0.952430000000     0.951020000000     0.873420000000     0.0375915  
H334     H      0.551740000000     0.550780000000     0.873670000000     0.0382904  
H335     H      0.552040000000     0.550710000000     0.798380000000     0.0377777  
H336     H      0.952230000000     0.951450000000     0.798110000000     0.037187   
H337     H      0.801730000000     0.750960000000     0.464830000000     0.0379383  
H338     H      0.702480000000     0.751470000000     0.464860000000     0.0376399  
H339     H      0.702230000000     0.750960000000     0.540160000000     0.0376192  
H340     H      0.802000000000     0.751460000000     0.540130000000     0.0379141  
H341     H      0.752190000000     0.801540000000     0.206980000000     0.0378401  
H342     H      0.752710000000     0.702290000000     0.206640000000     0.0378622  
H343     H      0.752270000000     0.702210000000     0.131350000000     0.0377856  
H344     H      0.752770000000     0.801970000000     0.131670000000     0.0378198  
H345     H      0.801980000000     0.501520000000     0.464940000000     0.0379631  
H346     H      0.702730000000     0.002060000000     0.464880000000     0.0375646  
H347     H      0.702460000000     0.001550000000     0.540190000000     0.0375711  
H348     H      0.802210000000     0.502020000000     0.540230000000     0.0379212  
H349     H      0.751790000000     0.550720000000     0.206700000000     0.0378583  
H350     H      0.752260000000     0.951470000000     0.207040000000     0.0377836  
H351     H      0.751690000000     0.951040000000     0.131730000000     0.0378129  
H352     H      0.752220000000     0.550800000000     0.131410000000     0.0377977  
H353     H      0.452240000000     0.750950000000     0.540270000000     0.0376606  
H354     H      0.052010000000     0.751470000000     0.540210000000     0.0370198  
H355     H      0.051730000000     0.750960000000     0.464900000000     0.0370235  
H356     H      0.452470000000     0.751460000000     0.464970000000     0.0376501  
H357     H      0.876490000000     0.683270000000     0.335620000000     0.0372916  
H358     H      0.934030000000     0.625790000000     0.335620000000     0.0389201  
H359     H      0.877970000000     0.569710000000     0.335610000000     0.0372969  
H360     H      0.820440000000     0.627200000000     0.335620000000     0.0368054  
H361     H      0.627940000000     0.819720000000     0.336200000000     0.0366816  
H362     H      0.570440000000     0.877240000000     0.336220000000     0.0367213  
H363     H      0.626500000000     0.933300000000     0.336200000000     0.0367349  
H364     H      0.684000000000     0.875780000000     0.336200000000     0.0367605  
H365     H      0.002160000000     0.801530000000     0.207070000000     0.035432   
H366     H      0.502680000000     0.702280000000     0.206730000000     0.0376648  
H367     H      0.502250000000     0.702210000000     0.131440000000     0.037651   
H368     H      0.002740000000     0.801960000000     0.131760000000     0.0361423  
H369     H      0.052230000000     0.002020000000     0.540240000000     0.0369632  
H370     H      0.452500000000     0.501550000000     0.540190000000     0.0376528  
H371     H      0.452770000000     0.502060000000     0.464890000000     0.0376294  
H372     H      0.052000000000     0.001520000000     0.464940000000     0.0369478  
H373     H      0.876540000000     0.933310000000     0.336160000000     0.0373274  
H374     H      0.934030000000     0.875770000000     0.336170000000     0.0389078  
H375     H      0.877960000000     0.819720000000     0.336140000000     0.037347   
H376     H      0.820470000000     0.877250000000     0.336150000000     0.0368338  
H377     H      0.626510000000     0.683300000000     0.335540000000     0.0366792  
H378     H      0.684040000000     0.625800000000     0.335540000000     0.0367227  
H379     H      0.627980000000     0.569730000000     0.335550000000     0.0367118  
H380     H      0.570460000000     0.627230000000     0.335560000000     0.0367242  
H381     H      0.002310000000     0.951490000000     0.207050000000     0.0360869  
H382     H      0.501770000000     0.550720000000     0.206710000000     0.0377025  
H383     H      0.502200000000     0.550800000000     0.131420000000     0.0376207  
H384     H      0.001710000000     0.951050000000     0.131740000000     0.0354313  
O1       O      0.016350000000     0.485750000000     0.277510000000    -0.537519   
O2       O      0.017910000000     0.487490000000     0.394380000000    -0.538809   
O3       O      0.473390000000     0.442910000000     0.336840000000    -0.543807   
O4       O      0.060850000000     0.030360000000     0.335070000000    -0.540678   
O5       O      0.031120000000     0.060090000000     0.336410000000    -0.554022   
O6       O      0.443660000000     0.472650000000     0.335300000000    -0.543784   
O7       O      0.486770000000     0.015840000000     0.394280000000    -0.542743   
O8       O      0.487990000000     0.016900000000     0.277400000000    -0.542623   
O9       O      0.016490000000     0.236120000000     0.277370000000    -0.537627   
O10      O      0.017710000000     0.237160000000     0.394260000000    -0.538658   
O11      O      0.473360000000     0.192920000000     0.336380000000    -0.543812   
O12      O      0.060810000000     0.280370000000     0.335260000000    -0.540611   
O13      O      0.031090000000     0.310100000000     0.336810000000    -0.55417    
O14      O      0.443630000000     0.222660000000     0.335050000000    -0.543809   
O15      O      0.486580000000     0.265540000000     0.394370000000    -0.542833   
O16      O      0.488110000000     0.267250000000     0.277500000000    -0.542722   
O17      O      0.237950000000     0.016890000000     0.277390000000    -0.542725   
O18      O      0.236740000000     0.015860000000     0.394270000000    -0.542742   
O19      O      0.281080000000     0.060100000000     0.336390000000    -0.543623   
O20      O      0.193650000000     0.472620000000     0.335270000000    -0.544106   
O21      O      0.223380000000     0.442890000000     0.336820000000    -0.543812   
O22      O      0.310810000000     0.030360000000     0.335050000000    -0.544196   
O23      O      0.267880000000     0.487450000000     0.394380000000    -0.542623   
O24      O      0.266350000000     0.485750000000     0.277510000000    -0.542871   
O25      O      0.238140000000     0.267270000000     0.277560000000    -0.542444   
O26      O      0.236600000000     0.265550000000     0.394430000000    -0.542708   
O27      O      0.281100000000     0.310120000000     0.336880000000    -0.543524   
O28      O      0.193650000000     0.222660000000     0.335110000000    -0.543772   
O29      O      0.223390000000     0.192930000000     0.336440000000    -0.543774   
O30      O      0.310840000000     0.280380000000     0.335330000000    -0.543639   
O31      O      0.267730000000     0.237170000000     0.394330000000    -0.54265    
O32      O      0.266520000000     0.236130000000     0.277450000000    -0.542681   
O33      O      0.473130000000     0.030570000000     0.001820000000    -0.54365    
O34      O      0.060580000000     0.030570000000     0.003290000000    -0.540507   
O35      O      0.017570000000     0.030590000000     0.944130000000    -0.535586   
O36      O      0.016170000000     0.030610000000     0.060980000000    -0.537113   
O37      O      0.487800000000     0.471090000000     0.061010000000    -0.541615   
O38      O      0.486470000000     0.471080000000     0.944110000000    -0.539191   
O39      O      0.030870000000     0.471100000000     0.001870000000    -0.553924   
O40      O      0.443410000000     0.471100000000     0.003260000000    -0.543679   
O41      O      0.061040000000     0.281900000000     0.003250000000    -0.540455   
O42      O      0.473590000000     0.281900000000     0.001840000000    -0.543905   
O43      O      0.016650000000     0.281910000000     0.060990000000    -0.536572   
O44      O      0.018000000000     0.281910000000     0.944090000000    -0.535285   
O45      O      0.486870000000     0.222400000000     0.944110000000    -0.539644   
O46      O      0.488270000000     0.222400000000     0.060970000000    -0.542229   
O47      O      0.443850000000     0.222430000000     0.003280000000    -0.543734   
O48      O      0.031310000000     0.222430000000     0.001810000000    -0.553947   
O49      O      0.280870000000     0.471100000000     0.001850000000    -0.54375    
O50      O      0.193420000000     0.471100000000     0.003270000000    -0.54386    
O51      O      0.236460000000     0.471080000000     0.944110000000    -0.539095   
O52      O      0.237810000000     0.471090000000     0.061010000000    -0.541724   
O53      O      0.266160000000     0.030600000000     0.060980000000    -0.542196   
O54      O      0.267580000000     0.030590000000     0.944120000000    -0.53955    
O55      O      0.223130000000     0.030560000000     0.001800000000    -0.543893   
O56      O      0.310580000000     0.030560000000     0.003300000000    -0.543952   
O57      O      0.193860000000     0.222430000000     0.003360000000    -0.543999   
O58      O      0.281310000000     0.222430000000     0.001860000000    -0.543759   
O59      O      0.238280000000     0.222400000000     0.061030000000    -0.542291   
O60      O      0.236860000000     0.222400000000     0.944180000000    -0.539726   
O61      O      0.267990000000     0.281910000000     0.944160000000    -0.539247   
O62      O      0.266660000000     0.281910000000     0.061060000000    -0.541734   
O63      O      0.311040000000     0.281900000000     0.003300000000    -0.543809   
O64      O      0.223590000000     0.281900000000     0.001920000000    -0.543766   
O65      O      0.472450000000     0.485750000000     0.727630000000    -0.542565   
O66      O      0.472560000000     0.487480000000     0.610750000000    -0.542606   
O67      O      0.472530000000     0.442910000000     0.668280000000    -0.543797   
O68      O      0.472490000000     0.030330000000     0.670090000000    -0.544177   
O69      O      0.031960000000     0.060070000000     0.668720000000    -0.540061   
O70      O      0.031990000000     0.472640000000     0.669790000000    -0.540297   
O71      O      0.032030000000     0.015830000000     0.610830000000    -0.539195   
O72      O      0.031920000000     0.016870000000     0.727700000000    -0.539063   
O73      O      0.032060000000     0.267230000000     0.727610000000    -0.53898    
O74      O      0.031950000000     0.265510000000     0.610740000000    -0.539097   
O75      O      0.031990000000     0.310090000000     0.668270000000    -0.540108   
O76      O      0.031980000000     0.222630000000     0.670080000000    -0.54002    
O77      O      0.472510000000     0.192900000000     0.668710000000    -0.543876   
O78      O      0.472520000000     0.280360000000     0.669780000000    -0.543884   
O79      O      0.472440000000     0.237140000000     0.610800000000    -0.542907   
O80      O      0.472550000000     0.236110000000     0.727680000000    -0.542648   
O81      O      0.281920000000     0.016870000000     0.727690000000    -0.542655   
O82      O      0.282030000000     0.015860000000     0.610820000000    -0.542569   
O83      O      0.281950000000     0.060090000000     0.668730000000    -0.543742   
O84      O      0.281940000000     0.472630000000     0.669800000000    -0.543906   
O85      O      0.222470000000     0.442890000000     0.668290000000    -0.543552   
O86      O      0.222480000000     0.030350000000     0.670110000000    -0.544016   
O87      O      0.222510000000     0.487460000000     0.610750000000    -0.542736   
O88      O      0.222400000000     0.485750000000     0.727620000000    -0.54273    
O89      O      0.222520000000     0.236110000000     0.727750000000    -0.542784   
O90      O      0.222420000000     0.237150000000     0.610870000000    -0.54288    
O91      O      0.222490000000     0.192910000000     0.668780000000    -0.544086   
O92      O      0.222490000000     0.280360000000     0.669840000000    -0.543843   
O93      O      0.281960000000     0.310090000000     0.668330000000    -0.543778   
O94      O      0.281960000000     0.222640000000     0.670160000000    -0.543711   
O95      O      0.281930000000     0.265520000000     0.610810000000    -0.542781   
O96      O      0.282030000000     0.267240000000     0.727680000000    -0.542646   
O97      O      0.016370000000     0.985770000000     0.277510000000    -0.53734    
O98      O      0.017900000000     0.987460000000     0.394380000000    -0.538299   
O99      O      0.473400000000     0.942910000000     0.336820000000    -0.543913   
O100     O      0.060850000000     0.530360000000     0.335050000000    -0.540196   
O101     O      0.031110000000     0.560100000000     0.336390000000    -0.553942   
O102     O      0.443670000000     0.972640000000     0.335270000000    -0.543722   
O103     O      0.486780000000     0.515860000000     0.394280000000    -0.54297    
O104     O      0.487970000000     0.516890000000     0.277400000000    -0.54261    
O105     O      0.016490000000     0.736120000000     0.277420000000    -0.537639   
O106     O      0.017720000000     0.737160000000     0.394300000000    -0.538694   
O107     O      0.473370000000     0.692920000000     0.336420000000    -0.54387    
O108     O      0.060810000000     0.780380000000     0.335300000000    -0.54062    
O109     O      0.031080000000     0.810110000000     0.336860000000    -0.553979   
O110     O      0.443630000000     0.722650000000     0.335100000000    -0.543716   
O111     O      0.486580000000     0.765540000000     0.394410000000    -0.542638   
O112     O      0.488110000000     0.767250000000     0.277540000000    -0.542668   
O113     O      0.237980000000     0.516880000000     0.277390000000    -0.542855   
O114     O      0.236740000000     0.515830000000     0.394270000000    -0.54273    
O115     O      0.281100000000     0.560080000000     0.336400000000    -0.543877   
O116     O      0.193630000000     0.972640000000     0.335280000000    -0.543677   
O117     O      0.223360000000     0.942910000000     0.336830000000    -0.544035   
O118     O      0.310830000000     0.530340000000     0.335070000000    -0.543811   
O119     O      0.267870000000     0.987480000000     0.394380000000    -0.542539   
O120     O      0.266320000000     0.985760000000     0.277510000000    -0.542603   
O121     O      0.238140000000     0.767260000000     0.277450000000    -0.54263    
O122     O      0.236600000000     0.765550000000     0.394320000000    -0.542702   
O123     O      0.281110000000     0.810120000000     0.336770000000    -0.543619   
O124     O      0.193650000000     0.722670000000     0.335000000000    -0.543657   
O125     O      0.223390000000     0.692930000000     0.336330000000    -0.543707   
O126     O      0.310840000000     0.780380000000     0.335220000000    -0.543867   
O127     O      0.267730000000     0.737170000000     0.394210000000    -0.542737   
O128     O      0.266520000000     0.736130000000     0.277330000000    -0.542685   
O129     O      0.473150000000     0.530570000000     0.001810000000    -0.543821   
O130     O      0.060600000000     0.530570000000     0.003310000000    -0.5406     
O131     O      0.017600000000     0.530590000000     0.944130000000    -0.535731   
O132     O      0.016180000000     0.530600000000     0.060980000000    -0.537276   
O133     O      0.487790000000     0.971100000000     0.061020000000    -0.541489   
O134     O      0.486440000000     0.971080000000     0.944120000000    -0.538835   
O135     O      0.030850000000     0.971100000000     0.001860000000    -0.553627   
O136     O      0.443400000000     0.971100000000     0.003270000000    -0.543475   
O137     O      0.061040000000     0.781900000000     0.003290000000    -0.540462   
O138     O      0.473590000000     0.781900000000     0.001880000000    -0.543723   
O139     O      0.016650000000     0.781910000000     0.061040000000    -0.536644   
O140     O      0.018000000000     0.781910000000     0.944140000000    -0.535335   
O141     O      0.486870000000     0.722410000000     0.944160000000    -0.539999   
O142     O      0.488270000000     0.722400000000     0.061010000000    -0.542365   
O143     O      0.443860000000     0.722430000000     0.003320000000    -0.543966   
O144     O      0.031310000000     0.722430000000     0.001850000000    -0.553992   
O145     O      0.280850000000     0.971100000000     0.001860000000    -0.543496   
O146     O      0.193390000000     0.971100000000     0.003250000000    -0.543476   
O147     O      0.236440000000     0.971080000000     0.944110000000    -0.538853   
O148     O      0.237780000000     0.971090000000     0.061010000000    -0.541395   
O149     O      0.266190000000     0.530600000000     0.060980000000    -0.542331   
O150     O      0.267590000000     0.530600000000     0.944130000000    -0.539753   
O151     O      0.223150000000     0.530570000000     0.001820000000    -0.543775   
O152     O      0.310600000000     0.530570000000     0.003290000000    -0.543959   
O153     O      0.193860000000     0.722430000000     0.003250000000    -0.544023   
O154     O      0.281310000000     0.722430000000     0.001750000000    -0.543806   
O155     O      0.238280000000     0.722400000000     0.060920000000    -0.542333   
O156     O      0.236860000000     0.722410000000     0.944070000000    -0.5399     
O157     O      0.267990000000     0.781910000000     0.944050000000    -0.539272   
O158     O      0.266660000000     0.781910000000     0.060950000000    -0.541726   
O159     O      0.311050000000     0.781900000000     0.003190000000    -0.543679   
O160     O      0.223590000000     0.781900000000     0.001810000000    -0.543727   
O161     O      0.472410000000     0.985740000000     0.727630000000    -0.542397   
O162     O      0.472520000000     0.987450000000     0.610750000000    -0.542154   
O163     O      0.472490000000     0.942890000000     0.668290000000    -0.543907   
O164     O      0.472520000000     0.530350000000     0.670110000000    -0.543825   
O165     O      0.031990000000     0.560090000000     0.668740000000    -0.540324   
O166     O      0.031960000000     0.972620000000     0.669810000000    -0.539919   
O167     O      0.032070000000     0.515860000000     0.610820000000    -0.539145   
O168     O      0.031960000000     0.516880000000     0.727700000000    -0.539126   
O169     O      0.032060000000     0.767240000000     0.727660000000    -0.538852   
O170     O      0.031950000000     0.765520000000     0.610780000000    -0.539085   
O171     O      0.031980000000     0.810090000000     0.668310000000    -0.540116   
O172     O      0.031990000000     0.722640000000     0.670130000000    -0.539889   
O173     O      0.472520000000     0.692900000000     0.668760000000    -0.543787   
O174     O      0.472510000000     0.780350000000     0.669820000000    -0.543812   
O175     O      0.472440000000     0.737140000000     0.610850000000    -0.542897   
O176     O      0.472550000000     0.736100000000     0.727730000000    -0.542664   
O177     O      0.281910000000     0.516890000000     0.727700000000    -0.54272    
O178     O      0.282020000000     0.515840000000     0.610820000000    -0.542831   
O179     O      0.281940000000     0.560080000000     0.668710000000    -0.54388    
O180     O      0.281950000000     0.972630000000     0.669770000000    -0.543408   
O181     O      0.222480000000     0.942900000000     0.668260000000    -0.543854   
O182     O      0.222470000000     0.530350000000     0.670090000000    -0.543685   
O183     O      0.222520000000     0.987480000000     0.610750000000    -0.542429   
O184     O      0.222410000000     0.985740000000     0.727620000000    -0.542351   
O185     O      0.222520000000     0.736110000000     0.727630000000    -0.542852   
O186     O      0.222420000000     0.737150000000     0.610750000000    -0.542736   
O187     O      0.222490000000     0.692910000000     0.668660000000    -0.543814   
O188     O      0.222490000000     0.780360000000     0.669730000000    -0.543875   
O189     O      0.281960000000     0.810090000000     0.668220000000    -0.543808   
O190     O      0.281960000000     0.722640000000     0.670040000000    -0.543578   
O191     O      0.281930000000     0.765520000000     0.610690000000    -0.542595   
O192     O      0.282030000000     0.767240000000     0.727570000000    -0.542597   
O193     O      0.516350000000     0.485750000000     0.277510000000    -0.542638   
O194     O      0.517910000000     0.487490000000     0.394380000000    -0.54282    
O195     O      0.973390000000     0.442910000000     0.336840000000    -0.531935   
O196     O      0.560850000000     0.030360000000     0.335070000000    -0.544063   
O197     O      0.531120000000     0.060090000000     0.336410000000    -0.543887   
O198     O      0.943660000000     0.472650000000     0.335300000000    -0.545765   
O199     O      0.986770000000     0.015840000000     0.394280000000    -0.534231   
O200     O      0.987990000000     0.016900000000     0.277400000000    -0.531705   
O201     O      0.516490000000     0.236120000000     0.277370000000    -0.54279    
O202     O      0.517710000000     0.237160000000     0.394260000000    -0.542709   
O203     O      0.973360000000     0.192920000000     0.336380000000    -0.532002   
O204     O      0.560810000000     0.280370000000     0.335260000000    -0.544108   
O205     O      0.531090000000     0.310100000000     0.336810000000    -0.544011   
O206     O      0.943630000000     0.222660000000     0.335050000000    -0.545785   
O207     O      0.986580000000     0.265540000000     0.394370000000    -0.534299   
O208     O      0.988110000000     0.267250000000     0.277500000000    -0.53177    
O209     O      0.737950000000     0.016890000000     0.277390000000    -0.542679   
O210     O      0.736740000000     0.015860000000     0.394270000000    -0.542704   
O211     O      0.781080000000     0.060100000000     0.336390000000    -0.543504   
O212     O      0.693650000000     0.472620000000     0.335270000000    -0.544064   
O213     O      0.723380000000     0.442890000000     0.336820000000    -0.54384    
O214     O      0.810820000000     0.030360000000     0.335050000000    -0.543705   
O215     O      0.767880000000     0.487450000000     0.394380000000    -0.542559   
O216     O      0.766350000000     0.485750000000     0.277510000000    -0.542617   
O217     O      0.738140000000     0.267270000000     0.277560000000    -0.542396   
O218     O      0.736600000000     0.265550000000     0.394430000000    -0.542665   
O219     O      0.781100000000     0.310120000000     0.336880000000    -0.543469   
O220     O      0.693650000000     0.222660000000     0.335110000000    -0.543748   
O221     O      0.723390000000     0.192930000000     0.336440000000    -0.54381    
O222     O      0.810840000000     0.280380000000     0.335330000000    -0.543412   
O223     O      0.767730000000     0.237170000000     0.394330000000    -0.542595   
O224     O      0.766520000000     0.236130000000     0.277450000000    -0.542502   
O225     O      0.973130000000     0.030570000000     0.001820000000    -0.531846   
O226     O      0.560580000000     0.030570000000     0.003290000000    -0.543877   
O227     O      0.517570000000     0.030590000000     0.944130000000    -0.539544   
O228     O      0.516170000000     0.030610000000     0.060980000000    -0.542197   
O229     O      0.987800000000     0.471090000000     0.061010000000    -0.530703   
O230     O      0.986470000000     0.471080000000     0.944110000000    -0.530706   
O231     O      0.530870000000     0.471100000000     0.001870000000    -0.543738   
O232     O      0.943410000000     0.471100000000     0.003260000000    -0.545673   
O233     O      0.561040000000     0.281900000000     0.003250000000    -0.54367    
O234     O      0.973590000000     0.281900000000     0.001840000000    -0.531923   
O235     O      0.516650000000     0.281910000000     0.060990000000    -0.541682   
O236     O      0.518000000000     0.281910000000     0.944090000000    -0.539262   
O237     O      0.986870000000     0.222400000000     0.944110000000    -0.531207   
O238     O      0.988270000000     0.222400000000     0.060970000000    -0.531352   
O239     O      0.943860000000     0.222430000000     0.003280000000    -0.545908   
O240     O      0.531310000000     0.222430000000     0.001810000000    -0.543693   
O241     O      0.780870000000     0.471100000000     0.001850000000    -0.543636   
O242     O      0.693410000000     0.471100000000     0.003270000000    -0.543699   
O243     O      0.736460000000     0.471080000000     0.944110000000    -0.539011   
O244     O      0.737810000000     0.471090000000     0.061010000000    -0.541637   
O245     O      0.766160000000     0.030600000000     0.060980000000    -0.54202    
O246     O      0.767580000000     0.030590000000     0.944120000000    -0.5395     
O247     O      0.723130000000     0.030560000000     0.001800000000    -0.543928   
O248     O      0.810580000000     0.030560000000     0.003300000000    -0.543726   
O249     O      0.693860000000     0.222430000000     0.003360000000    -0.543972   
O250     O      0.781310000000     0.222430000000     0.001860000000    -0.543798   
O251     O      0.738280000000     0.222400000000     0.061030000000    -0.542241   
O252     O      0.736860000000     0.222400000000     0.944180000000    -0.539681   
O253     O      0.767990000000     0.281910000000     0.944160000000    -0.539195   
O254     O      0.766660000000     0.281910000000     0.061060000000    -0.541556   
O255     O      0.811040000000     0.281900000000     0.003300000000    -0.54368    
O256     O      0.723590000000     0.281900000000     0.001920000000    -0.5438     
O257     O      0.972450000000     0.485750000000     0.727630000000    -0.532762   
O258     O      0.972560000000     0.487480000000     0.610750000000    -0.532801   
O259     O      0.972520000000     0.442910000000     0.668280000000    -0.533809   
O260     O      0.972490000000     0.030330000000     0.670090000000    -0.53429    
O261     O      0.531960000000     0.060070000000     0.668720000000    -0.543616   
O262     O      0.531990000000     0.472640000000     0.669790000000    -0.543982   
O263     O      0.532040000000     0.015830000000     0.610830000000    -0.542564   
O264     O      0.531920000000     0.016870000000     0.727700000000    -0.542606   
O265     O      0.532060000000     0.267230000000     0.727610000000    -0.542562   
O266     O      0.531950000000     0.265510000000     0.610740000000    -0.542682   
O267     O      0.531990000000     0.310090000000     0.668270000000    -0.543692   
O268     O      0.531980000000     0.222630000000     0.670080000000    -0.543688   
O269     O      0.972500000000     0.192900000000     0.668710000000    -0.53389    
O270     O      0.972520000000     0.280360000000     0.669780000000    -0.534013   
O271     O      0.972440000000     0.237140000000     0.610800000000    -0.533006   
O272     O      0.972550000000     0.236110000000     0.727680000000    -0.532756   
O273     O      0.781920000000     0.016870000000     0.727690000000    -0.542531   
O274     O      0.782030000000     0.015860000000     0.610820000000    -0.542452   
O275     O      0.781950000000     0.060090000000     0.668730000000    -0.543665   
O276     O      0.781940000000     0.472630000000     0.669800000000    -0.543932   
O277     O      0.722480000000     0.442890000000     0.668290000000    -0.543624   
O278     O      0.722480000000     0.030350000000     0.670110000000    -0.543961   
O279     O      0.722510000000     0.487460000000     0.610750000000    -0.542665   
O280     O      0.722400000000     0.485750000000     0.727620000000    -0.542654   
O281     O      0.722520000000     0.236110000000     0.727750000000    -0.542718   
O282     O      0.722420000000     0.237150000000     0.610870000000    -0.542819   
O283     O      0.722490000000     0.192910000000     0.668780000000    -0.543917   
O284     O      0.722490000000     0.280360000000     0.669840000000    -0.543804   
O285     O      0.781960000000     0.310090000000     0.668330000000    -0.543694   
O286     O      0.781960000000     0.222640000000     0.670160000000    -0.543671   
O287     O      0.781930000000     0.265520000000     0.610810000000    -0.542656   
O288     O      0.782030000000     0.267240000000     0.727680000000    -0.542522   
O289     O      0.516370000000     0.985770000000     0.277510000000    -0.542442   
O290     O      0.517900000000     0.987460000000     0.394380000000    -0.542289   
O291     O      0.973400000000     0.942910000000     0.336820000000    -0.532043   
O292     O      0.560850000000     0.530360000000     0.335050000000    -0.543579   
O293     O      0.531110000000     0.560100000000     0.336390000000    -0.543744   
O294     O      0.943660000000     0.972640000000     0.335270000000    -0.545498   
O295     O      0.986780000000     0.515860000000     0.394280000000    -0.534459   
O296     O      0.987970000000     0.516890000000     0.277400000000    -0.53169    
O297     O      0.516490000000     0.736120000000     0.277420000000    -0.542743   
O298     O      0.517720000000     0.737160000000     0.394300000000    -0.542597   
O299     O      0.973370000000     0.692920000000     0.336420000000    -0.532022   
O300     O      0.560810000000     0.780380000000     0.335300000000    -0.54401    
O301     O      0.531080000000     0.810110000000     0.336860000000    -0.543813   
O302     O      0.943630000000     0.722650000000     0.335100000000    -0.545696   
O303     O      0.986580000000     0.765540000000     0.394410000000    -0.53406    
O304     O      0.988110000000     0.767250000000     0.277540000000    -0.531754   
O305     O      0.737970000000     0.516880000000     0.277390000000    -0.542631   
O306     O      0.736740000000     0.515830000000     0.394270000000    -0.542676   
O307     O      0.781100000000     0.560080000000     0.336400000000    -0.543821   
O308     O      0.693630000000     0.972640000000     0.335280000000    -0.543652   
O309     O      0.723360000000     0.942910000000     0.336830000000    -0.544023   
O310     O      0.810830000000     0.530340000000     0.335070000000    -0.543582   
O311     O      0.767870000000     0.987480000000     0.394380000000    -0.54247    
O312     O      0.766320000000     0.985760000000     0.277510000000    -0.542406   
O313     O      0.738140000000     0.767260000000     0.277450000000    -0.542581   
O314     O      0.736600000000     0.765550000000     0.394320000000    -0.542661   
O315     O      0.781110000000     0.810120000000     0.336770000000    -0.543565   
O316     O      0.693650000000     0.722670000000     0.335000000000    -0.543629   
O317     O      0.723390000000     0.692930000000     0.336330000000    -0.543739   
O318     O      0.810840000000     0.780380000000     0.335220000000    -0.543642   
O319     O      0.767730000000     0.737170000000     0.394210000000    -0.542684   
O320     O      0.766520000000     0.736130000000     0.277330000000    -0.542506   
O321     O      0.973150000000     0.530570000000     0.001810000000    -0.531973   
O322     O      0.560600000000     0.530570000000     0.003310000000    -0.543982   
O323     O      0.517600000000     0.530590000000     0.944130000000    -0.539715   
O324     O      0.516180000000     0.530600000000     0.060980000000    -0.542391   
O325     O      0.987790000000     0.971100000000     0.061020000000    -0.530632   
O326     O      0.986440000000     0.971080000000     0.944120000000    -0.530407   
O327     O      0.530850000000     0.971100000000     0.001860000000    -0.543483   
O328     O      0.943400000000     0.971100000000     0.003270000000    -0.545489   
O329     O      0.561050000000     0.781900000000     0.003290000000    -0.543709   
O330     O      0.973590000000     0.781900000000     0.001880000000    -0.531954   
O331     O      0.516650000000     0.781910000000     0.061040000000    -0.541706   
O332     O      0.518000000000     0.781910000000     0.944140000000    -0.539272   
O333     O      0.986870000000     0.722410000000     0.944160000000    -0.531518   
O334     O      0.988270000000     0.722400000000     0.061010000000    -0.531446   
O335     O      0.943860000000     0.722430000000     0.003320000000    -0.545957   
O336     O      0.531310000000     0.722430000000     0.001850000000    -0.54386    
O337     O      0.780850000000     0.971100000000     0.001860000000    -0.543453   
O338     O      0.693390000000     0.971100000000     0.003250000000    -0.543454   
O339     O      0.736440000000     0.971080000000     0.944110000000    -0.53882    
O340     O      0.737780000000     0.971090000000     0.061010000000    -0.541354   
O341     O      0.766190000000     0.530600000000     0.060980000000    -0.542161   
O342     O      0.767590000000     0.530600000000     0.944130000000    -0.539705   
O343     O      0.723150000000     0.530570000000     0.001820000000    -0.543844   
O344     O      0.810600000000     0.530570000000     0.003290000000    -0.543732   
O345     O      0.693860000000     0.722430000000     0.003250000000    -0.543991   
O346     O      0.781310000000     0.722430000000     0.001750000000    -0.543755   
O347     O      0.738280000000     0.722400000000     0.060920000000    -0.542287   
O348     O      0.736860000000     0.722410000000     0.944070000000    -0.539856   
O349     O      0.767990000000     0.781910000000     0.944050000000    -0.539221   
O350     O      0.766660000000     0.781910000000     0.060950000000    -0.541548   
O351     O      0.811050000000     0.781900000000     0.003190000000    -0.543459   
O352     O      0.723590000000     0.781900000000     0.001810000000    -0.543756   
O353     O      0.972410000000     0.985740000000     0.727630000000    -0.532549   
O354     O      0.972520000000     0.987450000000     0.610750000000    -0.532387   
O355     O      0.972490000000     0.942890000000     0.668290000000    -0.534056   
O356     O      0.972520000000     0.530350000000     0.670110000000    -0.533968   
O357     O      0.531990000000     0.560090000000     0.668740000000    -0.543918   
O358     O      0.531960000000     0.972620000000     0.669810000000    -0.543459   
O359     O      0.532070000000     0.515860000000     0.610820000000    -0.542833   
O360     O      0.531960000000     0.516880000000     0.727700000000    -0.542809   
O361     O      0.532060000000     0.767240000000     0.727660000000    -0.542427   
O362     O      0.531950000000     0.765520000000     0.610780000000    -0.542661   
O363     O      0.531980000000     0.810090000000     0.668310000000    -0.54369    
O364     O      0.531990000000     0.722640000000     0.670130000000    -0.543458   
O365     O      0.972520000000     0.692900000000     0.668760000000    -0.533905   
O366     O      0.972510000000     0.780350000000     0.669820000000    -0.533942   
O367     O      0.972440000000     0.737140000000     0.610850000000    -0.532994   
O368     O      0.972550000000     0.736100000000     0.727730000000    -0.532765   
O369     O      0.781910000000     0.516890000000     0.727700000000    -0.54261    
O370     O      0.782020000000     0.515840000000     0.610820000000    -0.542725   
O371     O      0.781950000000     0.560080000000     0.668710000000    -0.543693   
O372     O      0.781950000000     0.972630000000     0.669770000000    -0.543438   
O373     O      0.722490000000     0.942900000000     0.668260000000    -0.543935   
O374     O      0.722470000000     0.530350000000     0.670090000000    -0.543544   
O375     O      0.722520000000     0.987480000000     0.610750000000    -0.542366   
O376     O      0.722410000000     0.985740000000     0.727620000000    -0.542284   
O377     O      0.722520000000     0.736110000000     0.727630000000    -0.542794   
O378     O      0.722420000000     0.737150000000     0.610750000000    -0.542679   
O379     O      0.722490000000     0.692910000000     0.668660000000    -0.543787   
O380     O      0.722490000000     0.780360000000     0.669730000000    -0.543842   
O381     O      0.781960000000     0.810090000000     0.668220000000    -0.543718   
O382     O      0.781960000000     0.722640000000     0.670040000000    -0.543493   
O383     O      0.781930000000     0.765520000000     0.610690000000    -0.542466   
O384     O      0.782030000000     0.767240000000     0.727570000000    -0.542467   
V1       V      0.018320000000     0.485430000000     0.335950000000     1.35399    
V2       V      0.486190000000     0.017560000000     0.335840000000     1.38506    
V3       V      0.018280000000     0.235440000000     0.335810000000     1.35415    
V4       V      0.486160000000     0.267580000000     0.335940000000     1.38608    
V5       V      0.236150000000     0.017570000000     0.335830000000     1.38507    
V6       V      0.268310000000     0.485410000000     0.335950000000     1.38607    
V7       V      0.236180000000     0.267590000000     0.336000000000     1.38542    
V8       V      0.268310000000     0.235460000000     0.335880000000     1.38595    
V9       V      0.018060000000     0.032970000000     0.002560000000     1.35097    
V10      V      0.485940000000     0.468700000000     0.002560000000     1.38121    
V11      V      0.018520000000     0.284300000000     0.002540000000     1.35001    
V12      V      0.486380000000     0.220030000000     0.002540000000     1.38239    
V13      V      0.235940000000     0.468700000000     0.002560000000     1.38142    
V14      V      0.268060000000     0.032970000000     0.002550000000     1.38237    
V15      V      0.236380000000     0.220030000000     0.002610000000     1.38286    
V16      V      0.268520000000     0.284300000000     0.002610000000     1.38161    
V17      V      0.470120000000     0.485430000000     0.669190000000     1.38571    
V18      V      0.034360000000     0.017540000000     0.669270000000     1.36948    
V19      V      0.034380000000     0.267560000000     0.669170000000     1.36975    
V20      V      0.470110000000     0.235430000000     0.669240000000     1.38609    
V21      V      0.284350000000     0.017560000000     0.669260000000     1.38524    
V22      V      0.220070000000     0.485420000000     0.669190000000     1.3853     
V23      V      0.220090000000     0.235430000000     0.669310000000     1.38605    
V24      V      0.284360000000     0.267570000000     0.669240000000     1.38591    
V25      V      0.018320000000     0.985430000000     0.335950000000     1.3551     
V26      V      0.486190000000     0.517570000000     0.335840000000     1.38612    
V27      V      0.018290000000     0.735450000000     0.335860000000     1.35459    
V28      V      0.486150000000     0.767580000000     0.335980000000     1.38567    
V29      V      0.236170000000     0.517550000000     0.335830000000     1.38615    
V30      V      0.268290000000     0.985430000000     0.335950000000     1.38714    
V31      V      0.236180000000     0.767590000000     0.335890000000     1.38544    
V32      V      0.268310000000     0.735460000000     0.335770000000     1.38601    
V33      V      0.018080000000     0.532970000000     0.002560000000     1.3514     
V34      V      0.485920000000     0.968700000000     0.002570000000     1.3818     
V35      V      0.018520000000     0.784300000000     0.002590000000     1.35003    
V36      V      0.486380000000     0.720030000000     0.002580000000     1.38306    
V37      V      0.235920000000     0.968700000000     0.002560000000     1.38158    
V38      V      0.268080000000     0.532970000000     0.002550000000     1.38299    
V39      V      0.236380000000     0.720030000000     0.002500000000     1.38297    
V40      V      0.268520000000     0.784300000000     0.002500000000     1.38133    
V41      V      0.470090000000     0.985410000000     0.669190000000     1.38688    
V42      V      0.034390000000     0.517560000000     0.669270000000     1.37028    
V43      V      0.034380000000     0.767570000000     0.669210000000     1.36936    
V44      V      0.470120000000     0.735430000000     0.669290000000     1.38604    
V45      V      0.284340000000     0.517550000000     0.669260000000     1.38639    
V46      V      0.220080000000     0.985420000000     0.669180000000     1.38653    
V47      V      0.220090000000     0.735440000000     0.669200000000     1.38603    
V48      V      0.284360000000     0.767570000000     0.669130000000     1.38571    
V49      V      0.518320000000     0.485430000000     0.335950000000     1.38555    
V50      V      0.986190000000     0.017560000000     0.335840000000     1.41315    
V51      V      0.518290000000     0.235440000000     0.335810000000     1.38579    
V52      V      0.986160000000     0.267580000000     0.335940000000     1.41419    
V53      V      0.736150000000     0.017570000000     0.335830000000     1.38501    
V54      V      0.768310000000     0.485410000000     0.335950000000     1.3863     
V55      V      0.736180000000     0.267590000000     0.336000000000     1.38534    
V56      V      0.768310000000     0.235460000000     0.335880000000     1.38621    
V57      V      0.518060000000     0.032970000000     0.002560000000     1.38234    
V58      V      0.985940000000     0.468700000000     0.002560000000     1.40951    
V59      V      0.518510000000     0.284300000000     0.002540000000     1.38155    
V60      V      0.986380000000     0.220030000000     0.002540000000     1.41102    
V61      V      0.735940000000     0.468700000000     0.002560000000     1.38101    
V62      V      0.768060000000     0.032970000000     0.002550000000     1.38265    
V63      V      0.736380000000     0.220030000000     0.002610000000     1.38278    
V64      V      0.768520000000     0.284300000000     0.002610000000     1.38187    
V65      V      0.970120000000     0.485430000000     0.669190000000     1.39428    
V66      V      0.534360000000     0.017540000000     0.669270000000     1.38514    
V67      V      0.534380000000     0.267560000000     0.669170000000     1.38563    
V68      V      0.970110000000     0.235430000000     0.669240000000     1.39457    
V69      V      0.784350000000     0.017560000000     0.669260000000     1.38572    
V70      V      0.720070000000     0.485420000000     0.669190000000     1.38503    
V71      V      0.720090000000     0.235430000000     0.669310000000     1.38591    
V72      V      0.784360000000     0.267570000000     0.669240000000     1.38634    
V73      V      0.518320000000     0.985430000000     0.335950000000     1.38659    
V74      V      0.986190000000     0.517570000000     0.335840000000     1.41443    
V75      V      0.518290000000     0.735450000000     0.335860000000     1.38608    
V76      V      0.986150000000     0.767580000000     0.335980000000     1.41389    
V77      V      0.736170000000     0.517550000000     0.335830000000     1.38602    
V78      V      0.768290000000     0.985430000000     0.335950000000     1.38715    
V79      V      0.736180000000     0.767590000000     0.335890000000     1.38536    
V80      V      0.768310000000     0.735460000000     0.335770000000     1.38628    
V81      V      0.518080000000     0.532970000000     0.002560000000     1.38292    
V82      V      0.985920000000     0.968700000000     0.002570000000     1.40996    
V83      V      0.518520000000     0.784300000000     0.002590000000     1.38117    
V84      V      0.986380000000     0.720030000000     0.002580000000     1.41128    
V85      V      0.735920000000     0.968700000000     0.002560000000     1.38148    
V86      V      0.768080000000     0.532970000000     0.002550000000     1.38332    
V87      V      0.736380000000     0.720030000000     0.002500000000     1.38289    
V88      V      0.768520000000     0.784300000000     0.002500000000     1.38159    
V89      V      0.970090000000     0.985410000000     0.669190000000     1.39518    
V90      V      0.534390000000     0.517560000000     0.669270000000     1.38627    
V91      V      0.534380000000     0.767570000000     0.669210000000     1.38518    
V92      V      0.970120000000     0.735430000000     0.669290000000     1.3944     
V93      V      0.784340000000     0.517550000000     0.669260000000     1.38696    
V94      V      0.720080000000     0.985420000000     0.669180000000     1.38629    
V95      V      0.720090000000     0.735440000000     0.669200000000     1.38595    
V96      V      0.784360000000     0.767570000000     0.669130000000     1.3861     


