data_structure

_audit_creation_method RASPA-1.0
_audit_creation_date 2023-5-22
_audit_author_name 'Poobodin Mano'

_cell_length_a    43.2139
_cell_length_b    43.2139
_cell_length_c    43.4095
_cell_angle_alpha 90
_cell_angle_beta  89.9998
_cell_angle_gamma 89.9998
_cell_volume      81064.7

_symmetry_cell_setting          triclinic
_symmetry_space_group_name_Hall 'P 1'
_symmetry_space_group_name_H-M  'P 1'
_symmetry_Int_Tables_number     1

_symmetry_equiv_pos_as_xyz 'x,y,z'

loop_
_atom_site_label
_atom_site_type_symbol
_atom_site_fract_x
_atom_site_fract_y
_atom_site_fract_z
_atom_site_charge
C1       C      0.003640000000     0.062040000000     0.501250000000     0.426169   
C2       C      0.003640000000     0.445220000000     0.501580000000     0.426734   
C3       C      0.062040000000     0.503630000000     0.001260000000     0.416367   
C4       C      0.445220000000     0.503630000000     0.001580000000     0.416289   
C5       C      0.503810000000     0.062100000000     0.252720000000     0.4247     
C6       C      0.503600000000     0.445300000000     0.250110000000     0.42546    
C7       C      0.445300000000     0.503600000000     0.250110000000     0.425325   
C8       C      0.062100000000     0.503800000000     0.252720000000     0.424821   
C9       C      0.503300000000     0.253220000000     0.059690000000     0.423133   
C10      C      0.504190000000     0.254060000000     0.443150000000     0.424345   
C11      C      0.003740000000     0.312050000000     0.501760000000     0.418181   
C12      C      0.003750000000     0.195220000000     0.501080000000     0.418059   
C13      C      0.003160000000     0.252800000000     0.193150000000     0.417447   
C14      C      0.004310000000     0.254590000000     0.309690000000     0.416822   
C15      C      0.503420000000     0.312110000000     0.250340000000     0.425973   
C16      C      0.504040000000     0.195280000000     0.252500000000     0.425937   
C17      C      0.253220000000     0.003290000000     0.059690000000     0.415583   
C18      C      0.254070000000     0.004180000000     0.443150000000     0.417088   
C19      C      0.312050000000     0.503730000000     0.501760000000     0.425727   
C20      C      0.195220000000     0.503740000000     0.501080000000     0.425719   
C21      C      0.252800000000     0.003160000000     0.193150000000     0.417276   
C22      C      0.254600000000     0.004300000000     0.309690000000     0.416857   
C23      C      0.195290000000     0.504040000000     0.252500000000     0.425633   
C24      C      0.312120000000     0.503420000000     0.250340000000     0.425931   
C25      C      0.254130000000     0.032390000000     0.392550000000    -0.000337152
C26      C      0.254380000000     0.004350000000     0.409010000000    -0.112459   
C27      C      0.254900000000     0.476380000000     0.392480000000    -0.000736093
C28      C      0.255080000000     0.476430000000     0.360310000000    -0.000649435
C29      C      0.254750000000     0.004450000000     0.343830000000    -0.112457   
C30      C      0.254320000000     0.032440000000     0.360330000000    -0.000334339
C31      C      0.253210000000     0.531090000000     0.110360000000    -0.000977165
C32      C      0.252950000000     0.003120000000     0.093830000000    -0.112187   
C33      C      0.252440000000     0.975080000000     0.110280000000     0.00626243 
C34      C      0.252300000000     0.975020000000     0.142500000000     0.00632973 
C35      C      0.252640000000     0.003020000000     0.159000000000    -0.112347   
C36      C      0.253050000000     0.531040000000     0.142530000000    -0.000704514
C37      C      0.476390000000     0.254900000000     0.392480000000    -0.000725297
C38      C      0.504350000000     0.254370000000     0.409010000000    -0.106032   
C39      C      0.032400000000     0.254120000000     0.392560000000    -0.00041723 
C40      C      0.032450000000     0.254320000000     0.360330000000    -0.000332761
C41      C      0.004460000000     0.254740000000     0.343840000000    -0.112387   
C42      C      0.476440000000     0.255070000000     0.360310000000    -0.000694095
C43      C      0.475080000000     0.252440000000     0.110280000000    -0.000878682
C44      C      0.503130000000     0.252940000000     0.093830000000    -0.105861   
C45      C      0.031090000000     0.253210000000     0.110360000000    -0.000730177
C46      C      0.031040000000     0.253050000000     0.142530000000    -0.000379371
C47      C      0.003020000000     0.252630000000     0.159010000000    -0.112577   
C48      C      0.475030000000     0.252290000000     0.142500000000    -0.000420385
C49      C      0.112440000000     0.024400000000     0.233820000000     0.003027   
C50      C      0.096130000000     0.504230000000     0.253290000000    -0.106381   
C51      C      0.112560000000     0.484200000000     0.272770000000     0.00099467 
C52      C      0.144930000000     0.483810000000     0.272220000000     0.00129223 
C53      C      0.161240000000     0.504240000000     0.253000000000    -0.106255   
C54      C      0.144770000000     0.024780000000     0.234070000000     0.000458443
C55      C      0.394950000000     0.483010000000     0.269000000000     0.00146273 
C56      C      0.411280000000     0.503180000000     0.249540000000    -0.106594   
C57      C      0.394850000000     0.023240000000     0.230080000000     0.00269293 
C58      C      0.362480000000     0.023640000000     0.230630000000     0.000609353
C59      C      0.346170000000     0.503210000000     0.249850000000    -0.106428   
C60      C      0.362620000000     0.482650000000     0.268750000000     0.00118278 
C61      C      0.023250000000     0.394840000000     0.230090000000     0.00266545 
C62      C      0.503190000000     0.411270000000     0.249550000000    -0.106541   
C63      C      0.483020000000     0.394950000000     0.269000000000     0.00149874 
C64      C      0.482650000000     0.362620000000     0.268750000000     0.00110826 
C65      C      0.503220000000     0.346160000000     0.249850000000    -0.106416   
C66      C      0.023650000000     0.362480000000     0.230640000000     0.000644066
C67      C      0.024790000000     0.144770000000     0.234070000000     0.000429154
C68      C      0.504250000000     0.161230000000     0.253000000000    -0.106386   
C69      C      0.483820000000     0.144920000000     0.272220000000     0.00135359 
C70      C      0.484200000000     0.112560000000     0.272770000000     0.000976923
C71      C      0.504240000000     0.096120000000     0.253290000000    -0.106464   
C72      C      0.024400000000     0.112440000000     0.233820000000     0.00310697 
C73      C      0.112440000000     0.484190000000     0.481070000000     0.00154365 
C74      C      0.096070000000     0.503670000000     0.001170000000    -0.114004   
C75      C      0.112460000000     0.023210000000     0.021200000000     0.00333826 
C76      C      0.144810000000     0.023630000000     0.020750000000     0.000262032
C77      C      0.161180000000     0.503740000000     0.001060000000    -0.112892   
C78      C      0.144790000000     0.483820000000     0.481410000000     0.00116391 
C79      C      0.394810000000     0.023270000000     0.481710000000     0.00325083 
C80      C      0.411190000000     0.503670000000     0.001670000000    -0.113224   
C81      C      0.394840000000     0.484120000000     0.021700000000     0.000943105
C82      C      0.362490000000     0.483750000000     0.021360000000     0.00286298 
C83      C      0.346090000000     0.503740000000     0.001780000000    -0.11662    
C84      C      0.362460000000     0.023700000000     0.482150000000     0.000374157
C85      C      0.484110000000     0.394830000000     0.021690000000     0.000887038
C86      C      0.003680000000     0.411190000000     0.501670000000    -0.115774   
C87      C      0.023290000000     0.394800000000     0.481720000000     0.00322281 
C88      C      0.023720000000     0.362460000000     0.482160000000     0.00042029 
C89      C      0.003750000000     0.346090000000     0.501780000000    -0.111959   
C90      C      0.483740000000     0.362480000000     0.021350000000     0.0029478  
C91      C      0.484190000000     0.112430000000     0.481070000000     0.00146916 
C92      C      0.003680000000     0.096070000000     0.501170000000    -0.115681   
C93      C      0.023210000000     0.112460000000     0.021200000000     0.00334246 
C94      C      0.023640000000     0.144800000000     0.020750000000     0.000305001
C95      C      0.003750000000     0.161180000000     0.501060000000    -0.112009   
C96      C      0.483830000000     0.144780000000     0.481410000000     0.00122466 
C97      C      0.003640000000     0.062040000000     0.001260000000     0.417421   
C98      C      0.003640000000     0.445220000000     0.001580000000     0.417673   
C99      C      0.062040000000     0.503630000000     0.501250000000     0.425132   
C100     C      0.445220000000     0.503630000000     0.501580000000     0.425492   
C101     C      0.503810000000     0.062100000000     0.752720000000     0.424687   
C102     C      0.503600000000     0.445300000000     0.750110000000     0.425407   
C103     C      0.445300000000     0.503600000000     0.750110000000     0.425299   
C104     C      0.062100000000     0.503800000000     0.752720000000     0.424809   
C105     C      0.503290000000     0.253220000000     0.559690000000     0.424386   
C106     C      0.504190000000     0.254060000000     0.943150000000     0.422193   
C107     C      0.003740000000     0.312050000000     0.001760000000     0.419145   
C108     C      0.003750000000     0.195220000000     0.001080000000     0.407353   
C109     C      0.003160000000     0.252800000000     0.693150000000     0.417409   
C110     C      0.004310000000     0.254590000000     0.809690000000     0.417109   
C111     C      0.503420000000     0.312110000000     0.750340000000     0.425962   
C112     C      0.504050000000     0.195280000000     0.752500000000     0.425917   
C113     C      0.253220000000     0.003290000000     0.559690000000     0.416772   
C114     C      0.254070000000     0.004180000000     0.943150000000     0.414884   
C115     C      0.312050000000     0.503730000000     0.001760000000     0.426613   
C116     C      0.195220000000     0.503740000000     0.001080000000     0.414947   
C117     C      0.252800000000     0.003160000000     0.693150000000     0.41725    
C118     C      0.254600000000     0.004300000000     0.809690000000     0.417      
C119     C      0.195290000000     0.504040000000     0.752500000000     0.425576   
C120     C      0.312120000000     0.503420000000     0.750340000000     0.42597    
C121     C      0.254130000000     0.032390000000     0.892550000000    -0.000756813
C122     C      0.254380000000     0.004350000000     0.909000000000    -0.110347   
C123     C      0.254900000000     0.476380000000     0.892480000000    -0.00122167 
C124     C      0.255080000000     0.476430000000     0.860310000000     4.11729e-05
C125     C      0.254750000000     0.004450000000     0.843830000000    -0.112584   
C126     C      0.254320000000     0.032440000000     0.860330000000     0.0003378  
C127     C      0.253210000000     0.531090000000     0.610360000000    -0.000788106
C128     C      0.252940000000     0.003120000000     0.593830000000    -0.112355   
C129     C      0.252440000000     0.975080000000     0.610280000000     0.00651892 
C130     C      0.252300000000     0.975020000000     0.642500000000     0.00635426 
C131     C      0.252640000000     0.003020000000     0.659000000000    -0.112267   
C132     C      0.253050000000     0.531040000000     0.642530000000    -0.000684197
C133     C      0.476390000000     0.254900000000     0.892480000000    -0.00117734 
C134     C      0.504350000000     0.254370000000     0.909010000000    -0.104048   
C135     C      0.032400000000     0.254120000000     0.892560000000    -0.000802992
C136     C      0.032450000000     0.254320000000     0.860330000000     0.000376394
C137     C      0.004460000000     0.254740000000     0.843830000000    -0.112629   
C138     C      0.476440000000     0.255070000000     0.860310000000     1.6344e-05 
C139     C      0.475080000000     0.252440000000     0.610280000000    -0.000587647
C140     C      0.503130000000     0.252940000000     0.593830000000    -0.106044   
C141     C      0.031090000000     0.253210000000     0.610360000000    -0.00054315 
C142     C      0.031040000000     0.253050000000     0.642530000000    -0.000356012
C143     C      0.003020000000     0.252630000000     0.659010000000    -0.112506   
C144     C      0.475030000000     0.252290000000     0.642500000000    -0.000517986
C145     C      0.112440000000     0.024400000000     0.733820000000     0.00307534 
C146     C      0.096130000000     0.504230000000     0.753290000000    -0.106324   
C147     C      0.112560000000     0.484200000000     0.772770000000     0.0010937  
C148     C      0.144930000000     0.483810000000     0.772220000000     0.00131286 
C149     C      0.161240000000     0.504240000000     0.752990000000    -0.106135   
C150     C      0.144770000000     0.024780000000     0.734070000000     0.000499163
C151     C      0.394950000000     0.483010000000     0.769000000000     0.00155377 
C152     C      0.411280000000     0.503180000000     0.749550000000    -0.106549   
C153     C      0.394850000000     0.023240000000     0.730080000000     0.00270814 
C154     C      0.362480000000     0.023640000000     0.730630000000     0.000622589
C155     C      0.346170000000     0.503210000000     0.749850000000    -0.106358   
C156     C      0.362620000000     0.482650000000     0.768750000000     0.00123219 
C157     C      0.023250000000     0.394840000000     0.730080000000     0.00261172 
C158     C      0.503190000000     0.411270000000     0.749550000000    -0.10644    
C159     C      0.483020000000     0.394950000000     0.769000000000     0.0015233  
C160     C      0.482650000000     0.362620000000     0.768750000000     0.00121061 
C161     C      0.503220000000     0.346160000000     0.749850000000    -0.106369   
C162     C      0.023650000000     0.362480000000     0.730640000000     0.000740395
C163     C      0.024790000000     0.144770000000     0.734070000000     0.000464189
C164     C      0.504250000000     0.161230000000     0.753000000000    -0.106275   
C165     C      0.483820000000     0.144920000000     0.772220000000     0.00142008 
C166     C      0.484200000000     0.112560000000     0.772770000000     0.00105837 
C167     C      0.504240000000     0.096120000000     0.753290000000    -0.106403   
C168     C      0.024400000000     0.112440000000     0.733820000000     0.00315514 
C169     C      0.112440000000     0.484190000000     0.981070000000     0.00985397 
C170     C      0.096070000000     0.503670000000     0.501170000000    -0.106555   
C171     C      0.112460000000     0.023210000000     0.521200000000     0.00309029 
C172     C      0.144810000000     0.023630000000     0.520750000000     0.000457283
C173     C      0.161180000000     0.503740000000     0.501060000000    -0.106276   
C174     C      0.144790000000     0.483820000000     0.981410000000     0.00880938 
C175     C      0.394810000000     0.023270000000     0.981710000000     0.0104532  
C176     C      0.411190000000     0.503670000000     0.501670000000    -0.106615   
C177     C      0.394830000000     0.484120000000     0.521700000000     0.00167661 
C178     C      0.362480000000     0.483750000000     0.521360000000     0.00107992 
C179     C      0.346090000000     0.503740000000     0.501780000000    -0.106148   
C180     C      0.362460000000     0.023700000000     0.982150000000     0.0104329  
C181     C      0.484110000000     0.394830000000     0.521690000000     0.00161251 
C182     C      0.003680000000     0.411190000000     0.001670000000    -0.122315   
C183     C      0.023290000000     0.394800000000     0.981720000000     0.0103435  
C184     C      0.023720000000     0.362460000000     0.982170000000     0.0105922  
C185     C      0.003750000000     0.346090000000     0.001780000000    -0.122478   
C186     C      0.483740000000     0.362480000000     0.521350000000     0.00117393 
C187     C      0.484190000000     0.112430000000     0.981070000000     0.00978682 
C188     C      0.003680000000     0.096070000000     0.001170000000    -0.123078   
C189     C      0.023210000000     0.112460000000     0.521200000000     0.0030875  
C190     C      0.023640000000     0.144800000000     0.520750000000     0.000510217
C191     C      0.003750000000     0.161180000000     0.001060000000    -0.118585   
C192     C      0.483830000000     0.144780000000     0.981410000000     0.00885732 
C193     C      0.003640000000     0.562040000000     0.501250000000     0.426831   
C194     C      0.003640000000     0.945210000000     0.501580000000     0.425118   
C195     C      0.062040000000     0.003630000000     0.001260000000     0.417569   
C196     C      0.445220000000     0.003630000000     0.001580000000     0.417558   
C197     C      0.503810000000     0.562100000000     0.252720000000     0.425354   
C198     C      0.503600000000     0.945300000000     0.250110000000     0.423931   
C199     C      0.445300000000     0.003600000000     0.250110000000     0.426547   
C200     C      0.062100000000     0.003800000000     0.252720000000     0.426      
C201     C      0.503290000000     0.753220000000     0.059690000000     0.423145   
C202     C      0.504190000000     0.754070000000     0.443150000000     0.424334   
C203     C      0.003740000000     0.812050000000     0.501760000000     0.418354   
C204     C      0.003750000000     0.695220000000     0.501080000000     0.417905   
C205     C      0.003160000000     0.752800000000     0.193150000000     0.417467   
C206     C      0.004310000000     0.754590000000     0.309690000000     0.416833   
C207     C      0.503420000000     0.812110000000     0.250340000000     0.426122   
C208     C      0.504050000000     0.695280000000     0.252500000000     0.425886   
C209     C      0.253220000000     0.503290000000     0.059690000000     0.423083   
C210     C      0.254070000000     0.504180000000     0.443150000000     0.42464    
C211     C      0.312050000000     0.003730000000     0.501760000000     0.417946   
C212     C      0.195220000000     0.003740000000     0.501080000000     0.417607   
C213     C      0.252800000000     0.503160000000     0.193150000000     0.42486    
C214     C      0.254600000000     0.504300000000     0.309690000000     0.42457    
C215     C      0.195290000000     0.004040000000     0.252500000000     0.41807    
C216     C      0.312120000000     0.003420000000     0.250340000000     0.418099   
C217     C      0.254130000000     0.532390000000     0.392550000000    -0.00053695 
C218     C      0.254380000000     0.504350000000     0.409010000000    -0.10613    
C219     C      0.254900000000     0.976380000000     0.392480000000     0.00620041 
C220     C      0.255080000000     0.976430000000     0.360310000000     0.00616539 
C221     C      0.254750000000     0.504450000000     0.343830000000    -0.106156   
C222     C      0.254320000000     0.532440000000     0.360330000000    -0.000484013
C223     C      0.253210000000     0.031090000000     0.110360000000    -0.000680075
C224     C      0.252940000000     0.503120000000     0.093830000000    -0.105874   
C225     C      0.252440000000     0.475080000000     0.110280000000    -0.00080815 
C226     C      0.252300000000     0.475030000000     0.142500000000    -0.000510254
C227     C      0.252640000000     0.503020000000     0.159000000000    -0.106246   
C228     C      0.253050000000     0.031040000000     0.142530000000    -0.000503102
C229     C      0.476390000000     0.754900000000     0.392480000000    -0.000681355
C230     C      0.504350000000     0.754370000000     0.409010000000    -0.105999   
C231     C      0.032400000000     0.754120000000     0.392560000000    -0.000385514
C232     C      0.032450000000     0.754320000000     0.360330000000    -0.000299136
C233     C      0.004460000000     0.754740000000     0.343840000000    -0.112326   
C234     C      0.476440000000     0.755070000000     0.360310000000    -0.000670864
C235     C      0.475080000000     0.752430000000     0.110280000000    -0.000801182
C236     C      0.503130000000     0.752940000000     0.093830000000    -0.105849   
C237     C      0.031090000000     0.753200000000     0.110360000000    -0.000699867
C238     C      0.031040000000     0.753050000000     0.142530000000    -0.000336579
C239     C      0.003020000000     0.752640000000     0.159010000000    -0.112536   
C240     C      0.475030000000     0.752290000000     0.142500000000    -0.000492882
C241     C      0.112440000000     0.524400000000     0.233820000000     0.00139938 
C242     C      0.096130000000     0.004230000000     0.253290000000    -0.115558   
C243     C      0.112560000000     0.984200000000     0.272770000000     0.00979635 
C244     C      0.144930000000     0.983810000000     0.272220000000     0.00755729 
C245     C      0.161240000000     0.004240000000     0.253000000000    -0.112032   
C246     C      0.144770000000     0.524780000000     0.234070000000     0.00106405 
C247     C      0.394950000000     0.983020000000     0.269000000000     0.0103969  
C248     C      0.411280000000     0.003180000000     0.249540000000    -0.115848   
C249     C      0.394850000000     0.523240000000     0.230080000000     0.00102611 
C250     C      0.362480000000     0.523640000000     0.230630000000     0.00131503 
C251     C      0.346170000000     0.003210000000     0.249850000000    -0.112046   
C252     C      0.362620000000     0.982640000000     0.268750000000     0.00729812 
C253     C      0.023250000000     0.894840000000     0.230090000000     0.00232197 
C254     C      0.503190000000     0.911270000000     0.249550000000    -0.104889   
C255     C      0.483020000000     0.894950000000     0.269000000000     0.00116166 
C256     C      0.482650000000     0.862620000000     0.268750000000     0.00164818 
C257     C      0.503220000000     0.846160000000     0.249850000000    -0.10654    
C258     C      0.023650000000     0.862480000000     0.230640000000     0.00121401 
C259     C      0.024790000000     0.644770000000     0.234070000000     0.000403505
C260     C      0.504250000000     0.661230000000     0.253000000000    -0.106339   
C261     C      0.483820000000     0.644920000000     0.272220000000     0.00134322 
C262     C      0.484200000000     0.612560000000     0.272770000000     0.00109659 
C263     C      0.504240000000     0.596120000000     0.253290000000    -0.1066     
C264     C      0.024400000000     0.612440000000     0.233820000000     0.00322209 
C265     C      0.112440000000     0.984190000000     0.481070000000     0.0103818  
C266     C      0.096070000000     0.003670000000     0.001170000000    -0.123127   
C267     C      0.112460000000     0.523200000000     0.021200000000     0.00174941 
C268     C      0.144810000000     0.523630000000     0.020750000000     0.000941504
C269     C      0.161180000000     0.003740000000     0.001060000000    -0.118429   
C270     C      0.144790000000     0.983820000000     0.481410000000     0.00734378 
C271     C      0.394810000000     0.523270000000     0.481710000000     0.00163666 
C272     C      0.411190000000     0.003670000000     0.001670000000    -0.122392   
C273     C      0.394830000000     0.984120000000     0.021700000000     0.00976833 
C274     C      0.362480000000     0.983750000000     0.021360000000     0.00908545 
C275     C      0.346090000000     0.003740000000     0.001780000000    -0.122264   
C276     C      0.362460000000     0.523700000000     0.482150000000     0.00104878 
C277     C      0.484110000000     0.894830000000     0.021690000000     0.000631877
C278     C      0.003680000000     0.911190000000     0.501670000000    -0.114198   
C279     C      0.023290000000     0.894800000000     0.481720000000     0.00295698 
C280     C      0.023720000000     0.862460000000     0.482160000000     0.000954162
C281     C      0.003750000000     0.846090000000     0.501780000000    -0.112044   
C282     C      0.483740000000     0.862480000000     0.021350000000     0.00350041 
C283     C      0.484190000000     0.612430000000     0.481070000000     0.00163588 
C284     C      0.003680000000     0.596070000000     0.501170000000    -0.115826   
C285     C      0.023210000000     0.612460000000     0.021200000000     0.00350238 
C286     C      0.023640000000     0.644800000000     0.020750000000     0.00022105 
C287     C      0.003750000000     0.661170000000     0.501060000000    -0.111814   
C288     C      0.483830000000     0.644780000000     0.481410000000     0.00114188 
C289     C      0.003640000000     0.562040000000     0.001260000000     0.418069   
C290     C      0.003640000000     0.945210000000     0.001580000000     0.416083   
C291     C      0.062040000000     0.003630000000     0.501250000000     0.426323   
C292     C      0.445220000000     0.003630000000     0.501580000000     0.426551   
C293     C      0.503810000000     0.562100000000     0.752720000000     0.425366   
C294     C      0.503610000000     0.945300000000     0.750110000000     0.423892   
C295     C      0.445300000000     0.003600000000     0.750110000000     0.426531   
C296     C      0.062100000000     0.003800000000     0.752720000000     0.425985   
C297     C      0.503290000000     0.753220000000     0.559690000000     0.424376   
C298     C      0.504190000000     0.754070000000     0.943150000000     0.422175   
C299     C      0.003740000000     0.812050000000     0.001760000000     0.419299   
C300     C      0.003750000000     0.695220000000     0.001080000000     0.407198   
C301     C      0.003160000000     0.752800000000     0.693150000000     0.417422   
C302     C      0.004310000000     0.754590000000     0.809690000000     0.41712    
C303     C      0.503420000000     0.812110000000     0.750340000000     0.426115   
C304     C      0.504040000000     0.695280000000     0.752500000000     0.425871   
C305     C      0.253220000000     0.503290000000     0.559690000000     0.424297   
C306     C      0.254070000000     0.504180000000     0.943150000000     0.422415   
C307     C      0.312050000000     0.003730000000     0.001760000000     0.418851   
C308     C      0.195220000000     0.003740000000     0.001080000000     0.406901   
C309     C      0.252800000000     0.503160000000     0.693150000000     0.424835   
C310     C      0.254600000000     0.504300000000     0.809690000000     0.424713   
C311     C      0.195290000000     0.004040000000     0.752500000000     0.418106   
C312     C      0.312120000000     0.003420000000     0.750340000000     0.418039   
C313     C      0.254130000000     0.532390000000     0.892550000000    -0.000961901
C314     C      0.254380000000     0.504350000000     0.909000000000    -0.104015   
C315     C      0.254900000000     0.976380000000     0.892480000000     0.00570598 
C316     C      0.255080000000     0.976430000000     0.860310000000     0.00684409 
C317     C      0.254750000000     0.504450000000     0.843830000000    -0.106292   
C318     C      0.254320000000     0.532440000000     0.860330000000     0.000191773
C319     C      0.253210000000     0.031090000000     0.610360000000    -0.000492806
C320     C      0.252950000000     0.503120000000     0.593830000000    -0.106034   
C321     C      0.252440000000     0.475080000000     0.610280000000    -0.000562919
C322     C      0.252300000000     0.475030000000     0.642500000000    -0.000489533
C323     C      0.252640000000     0.503020000000     0.659000000000    -0.106158   
C324     C      0.253050000000     0.031040000000     0.642530000000    -0.000481727
C325     C      0.476390000000     0.754900000000     0.892480000000    -0.00115105 
C326     C      0.504350000000     0.754370000000     0.909010000000    -0.103995   
C327     C      0.032400000000     0.754120000000     0.892560000000    -0.000771078
C328     C      0.032450000000     0.754320000000     0.860330000000     0.000409739
C329     C      0.004460000000     0.754740000000     0.843830000000    -0.112568   
C330     C      0.476440000000     0.755070000000     0.860310000000     6.0351e-05 
C331     C      0.475080000000     0.752430000000     0.610280000000    -0.000571848
C332     C      0.503130000000     0.752940000000     0.593830000000    -0.105961   
C333     C      0.031090000000     0.753200000000     0.610360000000    -0.00050475 
C334     C      0.031040000000     0.753050000000     0.642530000000    -0.000322654
C335     C      0.003020000000     0.752640000000     0.659010000000    -0.112446   
C336     C      0.475030000000     0.752290000000     0.642500000000    -0.000466762
C337     C      0.112440000000     0.524400000000     0.733820000000     0.00145577 
C338     C      0.096130000000     0.004230000000     0.753290000000    -0.115494   
C339     C      0.112560000000     0.984200000000     0.772770000000     0.00988399 
C340     C      0.144930000000     0.983810000000     0.772220000000     0.00759061 
C341     C      0.161240000000     0.004240000000     0.752990000000    -0.111935   
C342     C      0.144770000000     0.524780000000     0.734070000000     0.0010933  
C343     C      0.394950000000     0.983020000000     0.769000000000     0.0105043  
C344     C      0.411280000000     0.003180000000     0.749550000000    -0.11581    
C345     C      0.394850000000     0.523240000000     0.730080000000     0.00102897 
C346     C      0.362480000000     0.523640000000     0.730630000000     0.00135502 
C347     C      0.346170000000     0.003210000000     0.749850000000    -0.111939   
C348     C      0.362620000000     0.982640000000     0.768750000000     0.00732075 
C349     C      0.023250000000     0.894840000000     0.730080000000     0.00226849 
C350     C      0.503190000000     0.911270000000     0.749550000000    -0.104791   
C351     C      0.483020000000     0.894950000000     0.769000000000     0.00118946 
C352     C      0.482650000000     0.862620000000     0.768750000000     0.00177515 
C353     C      0.503210000000     0.846160000000     0.749850000000    -0.106495   
C354     C      0.023650000000     0.862480000000     0.730640000000     0.00131008 
C355     C      0.024790000000     0.644770000000     0.734070000000     0.00045774 
C356     C      0.504250000000     0.661230000000     0.753000000000    -0.106219   
C357     C      0.483820000000     0.644920000000     0.772220000000     0.00135733 
C358     C      0.484210000000     0.612560000000     0.772770000000     0.00125433 
C359     C      0.504240000000     0.596120000000     0.753290000000    -0.106578   
C360     C      0.024400000000     0.612440000000     0.733820000000     0.00324703 
C361     C      0.112440000000     0.984190000000     0.981070000000     0.0186358  
C362     C      0.096070000000     0.003670000000     0.501170000000    -0.115737   
C363     C      0.112460000000     0.523200000000     0.521200000000     0.00148969 
C364     C      0.144810000000     0.523630000000     0.520750000000     0.00114322 
C365     C      0.161180000000     0.003740000000     0.501060000000    -0.111846   
C366     C      0.144790000000     0.983820000000     0.981410000000     0.0149501  
C367     C      0.394810000000     0.523270000000     0.981710000000     0.00884082 
C368     C      0.411190000000     0.003670000000     0.501670000000    -0.115792   
C369     C      0.394840000000     0.984120000000     0.521700000000     0.0105048  
C370     C      0.362480000000     0.983750000000     0.521360000000     0.00733433 
C371     C      0.346090000000     0.003740000000     0.501780000000    -0.111847   
C372     C      0.362460000000     0.523700000000     0.982150000000     0.011146   
C373     C      0.484110000000     0.894830000000     0.521690000000     0.00138174 
C374     C      0.003680000000     0.911190000000     0.001670000000    -0.120749   
C375     C      0.023290000000     0.894800000000     0.981720000000     0.0100782  
C376     C      0.023720000000     0.862460000000     0.982170000000     0.0110903  
C377     C      0.003750000000     0.846090000000     0.001780000000    -0.122508   
C378     C      0.483740000000     0.862480000000     0.521350000000     0.0016714  
C379     C      0.484190000000     0.612430000000     0.981070000000     0.00996188 
C380     C      0.003680000000     0.596070000000     0.001170000000    -0.123235   
C381     C      0.023210000000     0.612460000000     0.521200000000     0.00324863 
C382     C      0.023640000000     0.644800000000     0.520750000000     0.000421139
C383     C      0.003750000000     0.661170000000     0.001060000000    -0.118408   
C384     C      0.483830000000     0.644780000000     0.981410000000     0.00879562 
C385     C      0.503640000000     0.062040000000     0.501250000000     0.424973   
C386     C      0.503640000000     0.445220000000     0.501580000000     0.425524   
C387     C      0.562040000000     0.503630000000     0.001260000000     0.416996   
C388     C      0.945220000000     0.503630000000     0.001580000000     0.414813   
C389     C      0.003810000000     0.062100000000     0.252720000000     0.425901   
C390     C      0.003610000000     0.445300000000     0.250110000000     0.426665   
C391     C      0.945300000000     0.503600000000     0.250110000000     0.423811   
C392     C      0.562100000000     0.503800000000     0.252720000000     0.425473   
C393     C      0.003290000000     0.253220000000     0.059690000000     0.415566   
C394     C      0.004190000000     0.254060000000     0.443150000000     0.416753   
C395     C      0.503740000000     0.312050000000     0.501760000000     0.426013   
C396     C      0.503750000000     0.195220000000     0.501080000000     0.425883   
C397     C      0.503160000000     0.252800000000     0.193150000000     0.424972   
C398     C      0.504310000000     0.254590000000     0.309690000000     0.424484   
C399     C      0.003420000000     0.312110000000     0.250340000000     0.418151   
C400     C      0.004040000000     0.195280000000     0.252500000000     0.418109   
C401     C      0.753220000000     0.003290000000     0.059690000000     0.415605   
C402     C      0.754070000000     0.004180000000     0.443150000000     0.417111   
C403     C      0.812060000000     0.503730000000     0.501760000000     0.425739   
C404     C      0.695220000000     0.503740000000     0.501080000000     0.425697   
C405     C      0.752800000000     0.003160000000     0.193150000000     0.417317   
C406     C      0.754600000000     0.004300000000     0.309690000000     0.416894   
C407     C      0.695290000000     0.504040000000     0.252500000000     0.425662   
C408     C      0.812120000000     0.503420000000     0.250340000000     0.42599    
C409     C      0.754130000000     0.032390000000     0.392550000000    -0.000304902
C410     C      0.754380000000     0.004350000000     0.409010000000    -0.112402   
C411     C      0.754900000000     0.476380000000     0.392480000000    -0.00069928 
C412     C      0.755080000000     0.476430000000     0.360310000000    -0.000615239
C413     C      0.754750000000     0.004450000000     0.343830000000    -0.112403   
C414     C      0.754320000000     0.032440000000     0.360330000000    -0.000297647
C415     C      0.753210000000     0.531090000000     0.110360000000    -0.000938576
C416     C      0.752950000000     0.003120000000     0.093830000000    -0.112127   
C417     C      0.752440000000     0.975080000000     0.110280000000     0.00627293 
C418     C      0.752300000000     0.975020000000     0.142500000000     0.00634845 
C419     C      0.752640000000     0.003020000000     0.159000000000    -0.112295   
C420     C      0.753050000000     0.531040000000     0.142530000000    -0.000669072
C421     C      0.976390000000     0.254900000000     0.392480000000     0.00617928 
C422     C      0.004350000000     0.254370000000     0.409010000000    -0.112334   
C423     C      0.532400000000     0.254120000000     0.392560000000    -0.000595578
C424     C      0.532450000000     0.254320000000     0.360330000000    -0.00051077 
C425     C      0.504460000000     0.254740000000     0.343840000000    -0.106038   
C426     C      0.976440000000     0.255070000000     0.360310000000     0.00618168 
C427     C      0.975080000000     0.252440000000     0.110280000000     0.00608124 
C428     C      0.003130000000     0.252940000000     0.093830000000    -0.112106   
C429     C      0.531090000000     0.253210000000     0.110360000000    -0.0009958  
C430     C      0.531040000000     0.253050000000     0.142530000000    -0.000616246
C431     C      0.503020000000     0.252630000000     0.159010000000    -0.106407   
C432     C      0.975030000000     0.252290000000     0.142500000000     0.00651909 
C433     C      0.612440000000     0.024400000000     0.233820000000     0.00313068 
C434     C      0.596130000000     0.504230000000     0.253290000000    -0.106505   
C435     C      0.612560000000     0.484200000000     0.272770000000     0.00110707 
C436     C      0.644930000000     0.483810000000     0.272220000000     0.0012916  
C437     C      0.661240000000     0.504240000000     0.253000000000    -0.106234   
C438     C      0.644780000000     0.024780000000     0.234070000000     0.000451635
C439     C      0.894950000000     0.483010000000     0.269000000000     0.00111971 
C440     C      0.911280000000     0.503180000000     0.249540000000    -0.104938   
C441     C      0.894850000000     0.023240000000     0.230080000000     0.00232207 
C442     C      0.862480000000     0.023640000000     0.230630000000     0.00122296 
C443     C      0.846170000000     0.503210000000     0.249850000000    -0.106557   
C444     C      0.862620000000     0.482650000000     0.268750000000     0.00172194 
C445     C      0.523250000000     0.394840000000     0.230090000000     0.00103944 
C446     C      0.003190000000     0.411270000000     0.249550000000    -0.115739   
C447     C      0.983020000000     0.394950000000     0.269000000000     0.0103369  
C448     C      0.982650000000     0.362620000000     0.268750000000     0.00732433 
C449     C      0.003220000000     0.346160000000     0.249850000000    -0.112086   
C450     C      0.523650000000     0.362480000000     0.230640000000     0.00132446 
C451     C      0.524790000000     0.144770000000     0.234070000000     0.00110181 
C452     C      0.004250000000     0.161230000000     0.253000000000    -0.112029   
C453     C      0.983820000000     0.144920000000     0.272220000000     0.00752325 
C454     C      0.984210000000     0.112560000000     0.272770000000     0.00987152 
C455     C      0.004240000000     0.096120000000     0.253290000000    -0.115696   
C456     C      0.524400000000     0.112440000000     0.233820000000     0.00143674 
C457     C      0.612440000000     0.484190000000     0.481070000000     0.00165206 
C458     C      0.596070000000     0.503670000000     0.001170000000    -0.114143   
C459     C      0.612460000000     0.023210000000     0.021200000000     0.00348448 
C460     C      0.644810000000     0.023630000000     0.020750000000     0.000189662
C461     C      0.661180000000     0.503740000000     0.001060000000    -0.11287    
C462     C      0.644790000000     0.483820000000     0.481410000000     0.00115992 
C463     C      0.894810000000     0.023270000000     0.481710000000     0.00294013 
C464     C      0.911190000000     0.503670000000     0.001670000000    -0.111572   
C465     C      0.894840000000     0.484120000000     0.021700000000     0.000652675
C466     C      0.862490000000     0.483750000000     0.021360000000     0.00340322 
C467     C      0.846090000000     0.503740000000     0.001780000000    -0.116711   
C468     C      0.862460000000     0.023700000000     0.482150000000     0.00091439 
C469     C      0.984110000000     0.394830000000     0.021690000000     0.00966753 
C470     C      0.503680000000     0.411190000000     0.501670000000    -0.106571   
C471     C      0.523290000000     0.394800000000     0.481720000000     0.00159953 
C472     C      0.523720000000     0.362460000000     0.482160000000     0.00108633 
C473     C      0.503740000000     0.346090000000     0.501780000000    -0.106296   
C474     C      0.983750000000     0.362480000000     0.021350000000     0.00923316 
C475     C      0.984190000000     0.112430000000     0.481070000000     0.0102989  
C476     C      0.503680000000     0.096070000000     0.501170000000    -0.106481   
C477     C      0.523210000000     0.112460000000     0.021200000000     0.00170327 
C478     C      0.523640000000     0.144800000000     0.020750000000     0.000979888
C479     C      0.503750000000     0.161180000000     0.501060000000    -0.106338   
C480     C      0.983830000000     0.144780000000     0.481410000000     0.00744424 
C481     C      0.503640000000     0.062040000000     0.001260000000     0.416214   
C482     C      0.503640000000     0.445220000000     0.001580000000     0.416456   
C483     C      0.562040000000     0.503630000000     0.501250000000     0.425676   
C484     C      0.945220000000     0.503630000000     0.501580000000     0.423844   
C485     C      0.003810000000     0.062100000000     0.752720000000     0.425884   
C486     C      0.003610000000     0.445300000000     0.750110000000     0.426624   
C487     C      0.945300000000     0.503600000000     0.750110000000     0.423791   
C488     C      0.562100000000     0.503800000000     0.752720000000     0.425464   
C489     C      0.003290000000     0.253220000000     0.559690000000     0.416783   
C490     C      0.004190000000     0.254060000000     0.943150000000     0.414622   
C491     C      0.503740000000     0.312050000000     0.001760000000     0.426938   
C492     C      0.503740000000     0.195220000000     0.001080000000     0.41511    
C493     C      0.503160000000     0.252800000000     0.693150000000     0.424583   
C494     C      0.504310000000     0.254590000000     0.809690000000     0.424758   
C495     C      0.003420000000     0.312110000000     0.750340000000     0.418144   
C496     C      0.004040000000     0.195280000000     0.752500000000     0.4181     
C497     C      0.753220000000     0.003290000000     0.559690000000     0.416797   
C498     C      0.754070000000     0.004180000000     0.943150000000     0.414906   
C499     C      0.812050000000     0.503730000000     0.001760000000     0.426719   
C500     C      0.695220000000     0.503740000000     0.001080000000     0.414919   
C501     C      0.752800000000     0.003160000000     0.693150000000     0.417273   
C502     C      0.754600000000     0.004300000000     0.809690000000     0.417025   
C503     C      0.695290000000     0.504040000000     0.752500000000     0.425613   
C504     C      0.812120000000     0.503420000000     0.750340000000     0.425994   
C505     C      0.754130000000     0.032390000000     0.892550000000    -0.000722995
C506     C      0.754370000000     0.004350000000     0.909000000000    -0.110291   
C507     C      0.754900000000     0.476380000000     0.892480000000    -0.00118671 
C508     C      0.755080000000     0.476430000000     0.860310000000     7.81564e-05
C509     C      0.754750000000     0.004450000000     0.843830000000    -0.112527   
C510     C      0.754320000000     0.032440000000     0.860330000000     0.000372535
C511     C      0.753210000000     0.531090000000     0.610360000000    -0.000751149
C512     C      0.752950000000     0.003120000000     0.593830000000    -0.112297   
C513     C      0.752440000000     0.975080000000     0.610280000000     0.00653161 
C514     C      0.752300000000     0.975020000000     0.642500000000     0.00636887 
C515     C      0.752640000000     0.003020000000     0.659000000000    -0.11221    
C516     C      0.753050000000     0.531040000000     0.642530000000    -0.000646391
C517     C      0.976390000000     0.254900000000     0.892480000000     0.00570687 
C518     C      0.004350000000     0.254370000000     0.909010000000    -0.110338   
C519     C      0.532400000000     0.254120000000     0.892560000000    -0.000960797
C520     C      0.532450000000     0.254320000000     0.860330000000     0.000159254
C521     C      0.504460000000     0.254740000000     0.843830000000    -0.106273   
C522     C      0.976440000000     0.255070000000     0.860310000000     0.00688819 
C523     C      0.975080000000     0.252440000000     0.610280000000     0.0063177  
C524     C      0.003130000000     0.252940000000     0.593830000000    -0.112261   
C525     C      0.531090000000     0.253210000000     0.610360000000    -0.00076908 
C526     C      0.531040000000     0.253050000000     0.642530000000    -0.000635456
C527     C      0.503030000000     0.252630000000     0.659010000000    -0.106159   
C528     C      0.975030000000     0.252290000000     0.642500000000     0.00657684 
C529     C      0.612440000000     0.024400000000     0.733820000000     0.00318947 
C530     C      0.596130000000     0.504230000000     0.753290000000    -0.106441   
C531     C      0.612570000000     0.484200000000     0.772770000000     0.00120296 
C532     C      0.644930000000     0.483810000000     0.772220000000     0.00131706 
C533     C      0.661240000000     0.504240000000     0.752990000000    -0.106127   
C534     C      0.644770000000     0.024780000000     0.734070000000     0.000473332
C535     C      0.894950000000     0.483010000000     0.769000000000     0.00122767 
C536     C      0.911280000000     0.503180000000     0.749550000000    -0.104899   
C537     C      0.894850000000     0.023240000000     0.730080000000     0.00235627 
C538     C      0.862480000000     0.023640000000     0.730630000000     0.00120683 
C539     C      0.846170000000     0.503210000000     0.749850000000    -0.106477   
C540     C      0.862620000000     0.482650000000     0.768750000000     0.00176019 
C541     C      0.523250000000     0.394840000000     0.730080000000     0.000987952
C542     C      0.003190000000     0.411270000000     0.749550000000    -0.115641   
C543     C      0.983020000000     0.394950000000     0.769000000000     0.0103637  
C544     C      0.982650000000     0.362620000000     0.768750000000     0.0074227  
C545     C      0.003220000000     0.346160000000     0.749850000000    -0.11204    
C546     C      0.523650000000     0.362480000000     0.730640000000     0.00142044 
C547     C      0.524790000000     0.144770000000     0.734070000000     0.00110233 
C548     C      0.004250000000     0.161230000000     0.753000000000    -0.111931   
C549     C      0.983820000000     0.144920000000     0.772220000000     0.00758648 
C550     C      0.984210000000     0.112560000000     0.772770000000     0.00994692 
C551     C      0.004240000000     0.096120000000     0.753290000000    -0.115628   
C552     C      0.524400000000     0.112440000000     0.733820000000     0.00150336 
C553     C      0.612430000000     0.484190000000     0.981070000000     0.0100013  
C554     C      0.596070000000     0.503670000000     0.501170000000    -0.106644   
C555     C      0.612460000000     0.023210000000     0.521200000000     0.00320446 
C556     C      0.644810000000     0.023630000000     0.520750000000     0.000438397
C557     C      0.661180000000     0.503740000000     0.501060000000    -0.106251   
C558     C      0.644790000000     0.483820000000     0.981410000000     0.00880143 
C559     C      0.894810000000     0.023270000000     0.981710000000     0.0101257  
C560     C      0.911190000000     0.503670000000     0.501670000000    -0.104921   
C561     C      0.894840000000     0.484120000000     0.521700000000     0.00133561 
C562     C      0.862490000000     0.483750000000     0.521360000000     0.00168801 
C563     C      0.846090000000     0.503740000000     0.501780000000    -0.106382   
C564     C      0.862460000000     0.023700000000     0.982150000000     0.0109584  
C565     C      0.984110000000     0.394830000000     0.521690000000     0.0104725  
C566     C      0.503680000000     0.411190000000     0.001670000000    -0.113181   
C567     C      0.523290000000     0.394800000000     0.981720000000     0.00875409 
C568     C      0.523720000000     0.362460000000     0.982170000000     0.011289   
C569     C      0.503750000000     0.346090000000     0.001780000000    -0.116816   
C570     C      0.983740000000     0.362480000000     0.521350000000     0.00737488 
C571     C      0.984190000000     0.112430000000     0.981070000000     0.0185578  
C572     C      0.503680000000     0.096070000000     0.001170000000    -0.113935   
C573     C      0.523210000000     0.112460000000     0.521200000000     0.00144069 
C574     C      0.523640000000     0.144800000000     0.520750000000     0.0011844  
C575     C      0.503750000000     0.161180000000     0.001060000000    -0.112947   
C576     C      0.983830000000     0.144780000000     0.981410000000     0.0150446  
C577     C      0.503640000000     0.562040000000     0.501250000000     0.425625   
C578     C      0.503640000000     0.945210000000     0.501580000000     0.423932   
C579     C      0.562040000000     0.003630000000     0.001260000000     0.418168   
C580     C      0.945220000000     0.003630000000     0.001580000000     0.416068   
C581     C      0.003810000000     0.562100000000     0.252720000000     0.426549   
C582     C      0.003610000000     0.945300000000     0.250110000000     0.425138   
C583     C      0.945300000000     0.003600000000     0.250110000000     0.425017   
C584     C      0.562100000000     0.003800000000     0.252720000000     0.426649   
C585     C      0.003290000000     0.753220000000     0.059690000000     0.415588   
C586     C      0.004190000000     0.754070000000     0.443150000000     0.416759   
C587     C      0.503740000000     0.812050000000     0.501760000000     0.42616    
C588     C      0.503750000000     0.695220000000     0.501080000000     0.42571    
C589     C      0.503160000000     0.752800000000     0.193150000000     0.424616   
C590     C      0.504310000000     0.754590000000     0.309690000000     0.42446    
C591     C      0.003420000000     0.812110000000     0.250340000000     0.41833    
C592     C      0.004040000000     0.695280000000     0.252500000000     0.418089   
C593     C      0.753220000000     0.503290000000     0.059690000000     0.423086   
C594     C      0.754070000000     0.504180000000     0.443150000000     0.424645   
C595     C      0.812050000000     0.003730000000     0.501760000000     0.418081   
C596     C      0.695220000000     0.003740000000     0.501080000000     0.417599   
C597     C      0.752800000000     0.503160000000     0.193150000000     0.424862   
C598     C      0.754600000000     0.504300000000     0.309690000000     0.424573   
C599     C      0.695290000000     0.004040000000     0.252500000000     0.418128   
C600     C      0.812120000000     0.003420000000     0.250340000000     0.418252   
C601     C      0.754130000000     0.532390000000     0.392550000000    -0.000501836
C602     C      0.754370000000     0.504350000000     0.409010000000    -0.106092   
C603     C      0.754900000000     0.976380000000     0.392480000000     0.00621362 
C604     C      0.755080000000     0.976430000000     0.360310000000     0.00618079 
C605     C      0.754750000000     0.504450000000     0.343830000000    -0.106116   
C606     C      0.754320000000     0.532440000000     0.360330000000    -0.000448945
C607     C      0.753210000000     0.031090000000     0.110360000000    -0.000644573
C608     C      0.752950000000     0.503120000000     0.093830000000    -0.105834   
C609     C      0.752440000000     0.475080000000     0.110280000000    -0.00077375 
C610     C      0.752300000000     0.475030000000     0.142500000000    -0.000473917
C611     C      0.752640000000     0.503020000000     0.159000000000    -0.106207   
C612     C      0.753050000000     0.031040000000     0.142530000000    -0.00046524 
C613     C      0.976390000000     0.754900000000     0.392480000000     0.00619211 
C614     C      0.004350000000     0.754370000000     0.409010000000    -0.112273   
C615     C      0.532400000000     0.754120000000     0.392560000000    -0.000539903
C616     C      0.532450000000     0.754320000000     0.360330000000    -0.000522743
C617     C      0.504460000000     0.754740000000     0.343840000000    -0.105973   
C618     C      0.976440000000     0.755070000000     0.360310000000     0.00619421 
C619     C      0.975080000000     0.752430000000     0.110280000000     0.00607247 
C620     C      0.003130000000     0.752940000000     0.093830000000    -0.112039   
C621     C      0.531090000000     0.753200000000     0.110360000000    -0.00092564 
C622     C      0.531040000000     0.753050000000     0.142530000000    -0.000615038
C623     C      0.503030000000     0.752640000000     0.159010000000    -0.106215   
C624     C      0.975030000000     0.752290000000     0.142500000000     0.0065752  
C625     C      0.612440000000     0.524400000000     0.233820000000     0.00151256 
C626     C      0.596130000000     0.004230000000     0.253290000000    -0.115659   
C627     C      0.612570000000     0.984200000000     0.272770000000     0.00988538 
C628     C      0.644930000000     0.983810000000     0.272220000000     0.00754678 
C629     C      0.661240000000     0.004240000000     0.253000000000    -0.112014   
C630     C      0.644770000000     0.524780000000     0.234070000000     0.00104623 
C631     C      0.894950000000     0.983020000000     0.269000000000     0.00998899 
C632     C      0.911280000000     0.003180000000     0.249540000000    -0.11413    
C633     C      0.894850000000     0.523240000000     0.230080000000     0.000686975
C634     C      0.862480000000     0.523640000000     0.230630000000     0.00188757 
C635     C      0.846160000000     0.003210000000     0.249850000000    -0.11227    
C636     C      0.862620000000     0.982640000000     0.268750000000     0.00785451 
C637     C      0.523250000000     0.894840000000     0.230090000000     0.000706536
C638     C      0.003190000000     0.911270000000     0.249550000000    -0.114043   
C639     C      0.983020000000     0.894950000000     0.269000000000     0.00995178 
C640     C      0.982650000000     0.862620000000     0.268750000000     0.00783788 
C641     C      0.003220000000     0.846160000000     0.249850000000    -0.112188   
C642     C      0.523650000000     0.862480000000     0.230640000000     0.00189007 
C643     C      0.524790000000     0.644770000000     0.234070000000     0.0010405  
C644     C      0.004250000000     0.661230000000     0.253000000000    -0.111986   
C645     C      0.983820000000     0.644920000000     0.272220000000     0.00749763 
C646     C      0.984210000000     0.612560000000     0.272770000000     0.00997538 
C647     C      0.004240000000     0.596120000000     0.253290000000    -0.115813   
C648     C      0.524400000000     0.612440000000     0.233820000000     0.00157142 
C649     C      0.612430000000     0.984190000000     0.481070000000     0.010503   
C650     C      0.596070000000     0.003670000000     0.001170000000    -0.123268   
C651     C      0.612460000000     0.523200000000     0.021200000000     0.00186445 
C652     C      0.644810000000     0.523630000000     0.020750000000     0.000922583
C653     C      0.661180000000     0.003740000000     0.001060000000    -0.118278   
C654     C      0.644790000000     0.983820000000     0.481410000000     0.00731484 
C655     C      0.894810000000     0.523270000000     0.481710000000     0.00129515 
C656     C      0.911190000000     0.003670000000     0.001670000000    -0.120687   
C657     C      0.894840000000     0.984120000000     0.021700000000     0.00943556 
C658     C      0.862490000000     0.983750000000     0.021360000000     0.0095906  
C659     C      0.846090000000     0.003740000000     0.001780000000    -0.122326   
C660     C      0.862460000000     0.523700000000     0.482150000000     0.00164647 
C661     C      0.984110000000     0.894830000000     0.021690000000     0.00941253 
C662     C      0.503680000000     0.911190000000     0.501670000000    -0.105047   
C663     C      0.523290000000     0.894800000000     0.481720000000     0.0013347  
C664     C      0.523720000000     0.862460000000     0.482160000000     0.00164353 
C665     C      0.503750000000     0.846090000000     0.501780000000    -0.106405   
C666     C      0.983740000000     0.862480000000     0.021350000000     0.009657   
C667     C      0.984190000000     0.612430000000     0.481070000000     0.010453   
C668     C      0.503680000000     0.596070000000     0.501170000000    -0.106635   
C669     C      0.523210000000     0.612460000000     0.021200000000     0.00186599 
C670     C      0.523640000000     0.644800000000     0.020750000000     0.000887697
C671     C      0.503750000000     0.661170000000     0.501060000000    -0.106147   
C672     C      0.983830000000     0.644780000000     0.481410000000     0.00735056 
C673     C      0.503640000000     0.562040000000     0.001260000000     0.416851   
C674     C      0.503640000000     0.945210000000     0.001580000000     0.414883   
C675     C      0.562040000000     0.003630000000     0.501250000000     0.426976   
C676     C      0.945220000000     0.003630000000     0.501580000000     0.425035   
C677     C      0.003810000000     0.562100000000     0.752720000000     0.426516   
C678     C      0.003610000000     0.945300000000     0.750110000000     0.425096   
C679     C      0.945300000000     0.003600000000     0.750110000000     0.425004   
C680     C      0.562100000000     0.003800000000     0.752720000000     0.426634   
C681     C      0.003290000000     0.753220000000     0.559690000000     0.416808   
C682     C      0.004190000000     0.754070000000     0.943150000000     0.414629   
C683     C      0.503740000000     0.812050000000     0.001760000000     0.42708    
C684     C      0.503750000000     0.695220000000     0.001080000000     0.414945   
C685     C      0.503160000000     0.752800000000     0.693150000000     0.424577   
C686     C      0.504310000000     0.754590000000     0.809690000000     0.424754   
C687     C      0.003420000000     0.812110000000     0.750340000000     0.418323   
C688     C      0.004040000000     0.695280000000     0.752500000000     0.418088   
C689     C      0.753220000000     0.503290000000     0.559690000000     0.424301   
C690     C      0.754070000000     0.504180000000     0.943150000000     0.422417   
C691     C      0.812050000000     0.003730000000     0.001760000000     0.418981   
C692     C      0.695230000000     0.003740000000     0.001080000000     0.406983   
C693     C      0.752800000000     0.503160000000     0.693150000000     0.424852   
C694     C      0.754600000000     0.504300000000     0.809690000000     0.424729   
C695     C      0.695290000000     0.004040000000     0.752500000000     0.418052   
C696     C      0.812120000000     0.003420000000     0.750340000000     0.418227   
C697     C      0.754130000000     0.532390000000     0.892550000000    -0.000928952
C698     C      0.754380000000     0.504350000000     0.909000000000    -0.103975   
C699     C      0.754900000000     0.976380000000     0.892480000000     0.00571988 
C700     C      0.755080000000     0.976430000000     0.860310000000     0.00685736 
C701     C      0.754750000000     0.504450000000     0.843830000000    -0.106257   
C702     C      0.754320000000     0.532440000000     0.860330000000     0.000229019
C703     C      0.753210000000     0.031090000000     0.610360000000    -0.000454813
C704     C      0.752950000000     0.503120000000     0.593830000000    -0.105992   
C705     C      0.752440000000     0.475080000000     0.610280000000    -0.000529961
C706     C      0.752300000000     0.475030000000     0.642500000000    -0.000449849
C707     C      0.752640000000     0.503020000000     0.659000000000    -0.106123   
C708     C      0.753050000000     0.031040000000     0.642530000000    -0.00044715 
C709     C      0.976390000000     0.754900000000     0.892480000000     0.00571984 
C710     C      0.004350000000     0.754370000000     0.909010000000    -0.110278   
C711     C      0.532400000000     0.754120000000     0.892560000000    -0.000950821
C712     C      0.532450000000     0.754320000000     0.860330000000     0.000238278
C713     C      0.504460000000     0.754740000000     0.843830000000    -0.106248   
C714     C      0.976440000000     0.755070000000     0.860310000000     0.00690046 
C715     C      0.975080000000     0.752430000000     0.610280000000     0.00633093 
C716     C      0.003130000000     0.752940000000     0.593830000000    -0.112204   
C717     C      0.531100000000     0.753200000000     0.610360000000    -0.000806596
C718     C      0.531040000000     0.753050000000     0.642530000000    -0.000592682
C719     C      0.503020000000     0.752640000000     0.659010000000    -0.106124   
C720     C      0.975030000000     0.752290000000     0.642500000000     0.00658969 
C721     C      0.612440000000     0.524400000000     0.733820000000     0.00156584 
C722     C      0.596130000000     0.004230000000     0.753290000000    -0.115605   
C723     C      0.612570000000     0.984200000000     0.772770000000     0.00998468 
C724     C      0.644930000000     0.983810000000     0.772220000000     0.00755759 
C725     C      0.661240000000     0.004240000000     0.752990000000    -0.111884   
C726     C      0.644770000000     0.524780000000     0.734070000000     0.00108222 
C727     C      0.894950000000     0.983020000000     0.769000000000     0.0101125  
C728     C      0.911280000000     0.003180000000     0.749550000000    -0.114107   
C729     C      0.894850000000     0.523240000000     0.730080000000     0.000697305
C730     C      0.862480000000     0.523640000000     0.730630000000     0.00192109 
C731     C      0.846170000000     0.003210000000     0.749850000000    -0.112064   
C732     C      0.862620000000     0.982640000000     0.768750000000     0.00784752 
C733     C      0.523250000000     0.894840000000     0.730080000000     0.000656517
C734     C      0.003190000000     0.911270000000     0.749550000000    -0.113945   
C735     C      0.983020000000     0.894950000000     0.769000000000     0.00997869 
C736     C      0.982650000000     0.862620000000     0.768750000000     0.00793594 
C737     C      0.003220000000     0.846160000000     0.749850000000    -0.112143   
C738     C      0.523650000000     0.862480000000     0.730640000000     0.00196025 
C739     C      0.524790000000     0.644770000000     0.734070000000     0.00106438 
C740     C      0.004250000000     0.661230000000     0.753000000000    -0.11191    
C741     C      0.983820000000     0.644920000000     0.772220000000     0.00760842 
C742     C      0.984200000000     0.612560000000     0.772770000000     0.00996922 
C743     C      0.004240000000     0.596120000000     0.753290000000    -0.115698   
C744     C      0.524400000000     0.612440000000     0.733820000000     0.00164432 
C745     C      0.612440000000     0.984190000000     0.981070000000     0.0187861  
C746     C      0.596070000000     0.003670000000     0.501170000000    -0.115854   
C747     C      0.612460000000     0.523200000000     0.521200000000     0.00158331 
C748     C      0.644810000000     0.523630000000     0.520750000000     0.00113656 
C749     C      0.661180000000     0.003740000000     0.501060000000    -0.111804   
C750     C      0.644790000000     0.983820000000     0.981410000000     0.014876   
C751     C      0.894810000000     0.523270000000     0.981710000000     0.00852741 
C752     C      0.911190000000     0.003670000000     0.501670000000    -0.114092   
C753     C      0.894830000000     0.984120000000     0.521700000000     0.0101541  
C754     C      0.862480000000     0.983750000000     0.521360000000     0.007851   
C755     C      0.846090000000     0.003740000000     0.501780000000    -0.111926   
C756     C      0.862460000000     0.523700000000     0.982150000000     0.0116683  
C757     C      0.984110000000     0.894830000000     0.521690000000     0.0101751  
C758     C      0.503680000000     0.911190000000     0.001670000000    -0.111647   
C759     C      0.523290000000     0.894800000000     0.981720000000     0.00849622 
C760     C      0.523720000000     0.862460000000     0.982170000000     0.0117705  
C761     C      0.503740000000     0.846090000000     0.001780000000    -0.116908   
C762     C      0.983740000000     0.862480000000     0.521350000000     0.00787614 
C763     C      0.984190000000     0.612430000000     0.981070000000     0.0187241  
C764     C      0.503680000000     0.596070000000     0.001170000000    -0.1141     
C765     C      0.523210000000     0.612460000000     0.521200000000     0.00160397 
C766     C      0.523640000000     0.644800000000     0.520750000000     0.00109163 
C767     C      0.503750000000     0.661170000000     0.001060000000    -0.112778   
C768     C      0.983830000000     0.644780000000     0.981410000000     0.0149627  
H1       H      0.253750000000     0.054370000000     0.404530000000     0.0386036  
H2       H      0.255120000000     0.454340000000     0.404360000000     0.0387141  
H3       H      0.255420000000     0.454410000000     0.348390000000     0.0385935  
H4       H      0.254050000000     0.054450000000     0.348390000000     0.0386448  
H5       H      0.253570000000     0.553130000000     0.098480000000     0.0383491  
H6       H      0.252210000000     0.953090000000     0.098290000000     0.037988   
H7       H      0.251980000000     0.953020000000     0.154430000000     0.0383619  
H8       H      0.253330000000     0.553050000000     0.154450000000     0.0384167  
H9       H      0.454350000000     0.255110000000     0.404360000000     0.0387135  
H10      H      0.054380000000     0.253740000000     0.404530000000     0.038622   
H11      H      0.054460000000     0.254050000000     0.348400000000     0.0386346  
H12      H      0.454420000000     0.255410000000     0.348390000000     0.0386016  
H13      H      0.453100000000     0.252210000000     0.098300000000     0.03852    
H14      H      0.053130000000     0.253560000000     0.098480000000     0.0381198  
H15      H      0.053060000000     0.253320000000     0.154450000000     0.038186   
H16      H      0.453020000000     0.251970000000     0.154440000000     0.03874    
H17      H      0.100170000000     0.040110000000     0.218680000000     0.0333679  
H18      H      0.100380000000     0.468370000000     0.287850000000     0.0350637  
H19      H      0.157220000000     0.467870000000     0.287100000000     0.0353239  
H20      H      0.156920000000     0.040650000000     0.218990000000     0.0348957  
H21      H      0.407230000000     0.467290000000     0.284130000000     0.0345088  
H22      H      0.407040000000     0.039070000000     0.215010000000     0.0345171  
H23      H      0.350190000000     0.039600000000     0.215770000000     0.0351941  
H24      H      0.350470000000     0.466770000000     0.283820000000     0.0353671  
H25      H      0.039090000000     0.407030000000     0.215010000000     0.0345014  
H26      H      0.467290000000     0.407220000000     0.284120000000     0.034496   
H27      H      0.466770000000     0.350470000000     0.283810000000     0.0353946  
H28      H      0.039610000000     0.350190000000     0.215780000000     0.0351825  
H29      H      0.040660000000     0.156910000000     0.218990000000     0.0349028  
H30      H      0.467880000000     0.157220000000     0.287100000000     0.0352994  
H31      H      0.468380000000     0.100370000000     0.287860000000     0.0350778  
H32      H      0.040110000000     0.100160000000     0.218680000000     0.0333473  
H33      H      0.100190000000     0.468860000000     0.465530000000     0.034338   
H34      H      0.100240000000     0.038500000000     0.036790000000     0.0328212  
H35      H      0.157040000000     0.039090000000     0.036180000000     0.0344823  
H36      H      0.157000000000     0.468370000000     0.465960000000     0.0352939  
H37      H      0.407030000000     0.038620000000     0.466160000000     0.0334782  
H38      H      0.407080000000     0.468740000000     0.037190000000     0.0342696  
H39      H      0.350270000000     0.468250000000     0.036750000000     0.03448    
H40      H      0.350230000000     0.039210000000     0.466780000000     0.0350585  
H41      H      0.468720000000     0.407080000000     0.037170000000     0.0342878  
H42      H      0.038650000000     0.407020000000     0.466180000000     0.0334676  
H43      H      0.039240000000     0.350230000000     0.466800000000     0.0350443  
H44      H      0.468230000000     0.350260000000     0.036730000000     0.0344586  
H45      H      0.468860000000     0.100190000000     0.465530000000     0.0343655  
H46      H      0.038510000000     0.100240000000     0.036790000000     0.0328075  
H47      H      0.039100000000     0.157030000000     0.036180000000     0.0344636  
H48      H      0.468380000000     0.157000000000     0.465960000000     0.0352693  
H49      H      0.253750000000     0.054370000000     0.904530000000     0.0398268  
H50      H      0.255120000000     0.454340000000     0.904360000000     0.0398766  
H51      H      0.255420000000     0.454410000000     0.848390000000     0.0388637  
H52      H      0.254050000000     0.054450000000     0.848400000000     0.0389345  
H53      H      0.253570000000     0.553130000000     0.598480000000     0.0386885  
H54      H      0.252210000000     0.953090000000     0.598290000000     0.0383968  
H55      H      0.251980000000     0.953020000000     0.654440000000     0.0385625  
H56      H      0.253330000000     0.553050000000     0.654450000000     0.0385999  
H57      H      0.454350000000     0.255110000000     0.904360000000     0.0398659  
H58      H      0.054380000000     0.253740000000     0.904540000000     0.0398449  
H59      H      0.054460000000     0.254050000000     0.848400000000     0.0389313  
H60      H      0.454420000000     0.255410000000     0.848390000000     0.0388711  
H61      H      0.453100000000     0.252210000000     0.598300000000     0.0389193  
H62      H      0.053130000000     0.253560000000     0.598480000000     0.0384659  
H63      H      0.053060000000     0.253320000000     0.654450000000     0.0383675  
H64      H      0.453020000000     0.251970000000     0.654440000000     0.0389739  
H65      H      0.100170000000     0.040110000000     0.718680000000     0.033428   
H66      H      0.100380000000     0.468370000000     0.787850000000     0.0352301  
H67      H      0.157220000000     0.467870000000     0.787100000000     0.0355314  
H68      H      0.156920000000     0.040650000000     0.719000000000     0.0349972  
H69      H      0.407230000000     0.467290000000     0.784130000000     0.0346894  
H70      H      0.407040000000     0.039070000000     0.715010000000     0.0345958  
H71      H      0.350200000000     0.039600000000     0.715770000000     0.0353004  
H72      H      0.350470000000     0.466770000000     0.783820000000     0.0355931  
H73      H      0.039090000000     0.407030000000     0.715010000000     0.0346031  
H74      H      0.467290000000     0.407220000000     0.784120000000     0.0346921  
H75      H      0.466770000000     0.350470000000     0.783820000000     0.0356011  
H76      H      0.039610000000     0.350190000000     0.715770000000     0.0352625  
H77      H      0.040660000000     0.156910000000     0.718990000000     0.0349901  
H78      H      0.467880000000     0.157220000000     0.787100000000     0.035502   
H79      H      0.468380000000     0.100370000000     0.787860000000     0.0352494  
H80      H      0.040110000000     0.100160000000     0.718680000000     0.0334074  
H81      H      0.100190000000     0.468860000000     0.965530000000     0.0341102  
H82      H      0.100240000000     0.038500000000     0.536790000000     0.0333621  
H83      H      0.157040000000     0.039090000000     0.536180000000     0.0349432  
H84      H      0.157000000000     0.468370000000     0.965960000000     0.0352869  
H85      H      0.407030000000     0.038620000000     0.966160000000     0.0335673  
H86      H      0.407080000000     0.468740000000     0.537190000000     0.0345512  
H87      H      0.350270000000     0.468250000000     0.536750000000     0.0354648  
H88      H      0.350230000000     0.039210000000     0.966780000000     0.0350747  
H89      H      0.468720000000     0.407080000000     0.537170000000     0.0345658  
H90      H      0.038650000000     0.407020000000     0.966180000000     0.0335772  
H91      H      0.039240000000     0.350230000000     0.966800000000     0.0350282  
H92      H      0.468230000000     0.350260000000     0.536730000000     0.0354424  
H93      H      0.468860000000     0.100190000000     0.965530000000     0.0341334  
H94      H      0.038510000000     0.100240000000     0.536790000000     0.0333504  
H95      H      0.039100000000     0.157030000000     0.536180000000     0.0349235  
H96      H      0.468380000000     0.157000000000     0.965960000000     0.0352755  
H97      H      0.253750000000     0.554370000000     0.404530000000     0.0388759  
H98      H      0.255120000000     0.954340000000     0.404360000000     0.0381529  
H99      H      0.255420000000     0.954420000000     0.348390000000     0.0380339  
H100     H      0.254050000000     0.554450000000     0.348390000000     0.0389255  
H101     H      0.253570000000     0.053130000000     0.098480000000     0.0381068  
H102     H      0.252220000000     0.453100000000     0.098290000000     0.0385127  
H103     H      0.251980000000     0.453020000000     0.154430000000     0.0387596  
H104     H      0.253330000000     0.053050000000     0.154450000000     0.038224   
H105     H      0.454350000000     0.755110000000     0.404360000000     0.03877    
H106     H      0.054380000000     0.753750000000     0.404530000000     0.0386745  
H107     H      0.054460000000     0.754050000000     0.348400000000     0.038691   
H108     H      0.454420000000     0.755410000000     0.348390000000     0.0386593  
H109     H      0.453100000000     0.752210000000     0.098300000000     0.0385607  
H110     H      0.053130000000     0.753560000000     0.098480000000     0.0381843  
H111     H      0.053060000000     0.753320000000     0.154450000000     0.0382427  
H112     H      0.453020000000     0.751980000000     0.154440000000     0.0388312  
H113     H      0.100170000000     0.540110000000     0.218680000000     0.0341637  
H114     H      0.100380000000     0.968370000000     0.287850000000     0.0350408  
H115     H      0.157220000000     0.967870000000     0.287100000000     0.0354545  
H116     H      0.156920000000     0.540650000000     0.218990000000     0.0351292  
H117     H      0.407230000000     0.967290000000     0.284130000000     0.0344606  
H118     H      0.407040000000     0.539070000000     0.215010000000     0.0353798  
H119     H      0.350200000000     0.539600000000     0.215770000000     0.0354491  
H120     H      0.350470000000     0.966770000000     0.283820000000     0.0355752  
H121     H      0.039090000000     0.907030000000     0.215010000000     0.0356354  
H122     H      0.467290000000     0.907220000000     0.284120000000     0.0354639  
H123     H      0.466770000000     0.850470000000     0.283810000000     0.0355331  
H124     H      0.039610000000     0.850190000000     0.215780000000     0.0353704  
H125     H      0.040660000000     0.656910000000     0.218990000000     0.0349303  
H126     H      0.467880000000     0.657220000000     0.287100000000     0.0353554  
H127     H      0.468380000000     0.600370000000     0.287860000000     0.0352352  
H128     H      0.040110000000     0.600160000000     0.218680000000     0.0334108  
H129     H      0.100190000000     0.968860000000     0.465530000000     0.0343046  
H130     H      0.100240000000     0.538500000000     0.036790000000     0.0336242  
H131     H      0.157040000000     0.539090000000     0.036180000000     0.0347157  
H132     H      0.157000000000     0.968370000000     0.465960000000     0.0354738  
H133     H      0.407030000000     0.538620000000     0.466160000000     0.0343428  
H134     H      0.407080000000     0.968740000000     0.037190000000     0.0342928  
H135     H      0.350270000000     0.968250000000     0.036750000000     0.0347065  
H136     H      0.350230000000     0.539210000000     0.466780000000     0.035345   
H137     H      0.468720000000     0.907080000000     0.037170000000     0.0352694  
H138     H      0.038650000000     0.907020000000     0.466180000000     0.0344144  
H139     H      0.039240000000     0.850220000000     0.466800000000     0.0351788  
H140     H      0.468230000000     0.850260000000     0.036730000000     0.0346166  
H141     H      0.468860000000     0.600190000000     0.465530000000     0.0344561  
H142     H      0.038510000000     0.600240000000     0.036790000000     0.0328686  
H143     H      0.039100000000     0.657030000000     0.036180000000     0.0345049  
H144     H      0.468380000000     0.657000000000     0.465960000000     0.0353323  
H145     H      0.253750000000     0.554370000000     0.904530000000     0.0401018  
H146     H      0.255120000000     0.954340000000     0.904360000000     0.0393124  
H147     H      0.255420000000     0.954420000000     0.848390000000     0.0383045  
H148     H      0.254050000000     0.554450000000     0.848400000000     0.0392145  
H149     H      0.253570000000     0.053130000000     0.598480000000     0.0384458  
H150     H      0.252210000000     0.453100000000     0.598290000000     0.0389231  
H151     H      0.251980000000     0.453020000000     0.654440000000     0.0389593  
H152     H      0.253330000000     0.053050000000     0.654450000000     0.0384068  
H153     H      0.454350000000     0.755110000000     0.904360000000     0.0399257  
H154     H      0.054380000000     0.753750000000     0.904540000000     0.0398968  
H155     H      0.054460000000     0.754050000000     0.848400000000     0.0389875  
H156     H      0.454420000000     0.755410000000     0.848390000000     0.0389228  
H157     H      0.453100000000     0.752210000000     0.598300000000     0.0389772  
H158     H      0.053130000000     0.753560000000     0.598480000000     0.0385285  
H159     H      0.053060000000     0.753320000000     0.654450000000     0.0384266  
H160     H      0.453030000000     0.751980000000     0.654440000000     0.0390373  
H161     H      0.100170000000     0.540110000000     0.718680000000     0.0342228  
H162     H      0.100380000000     0.968370000000     0.787850000000     0.0352074  
H163     H      0.157220000000     0.967870000000     0.787100000000     0.0356574  
H164     H      0.156920000000     0.540650000000     0.719000000000     0.0352357  
H165     H      0.407230000000     0.967290000000     0.784130000000     0.0346394  
H166     H      0.407040000000     0.539070000000     0.715010000000     0.0354607  
H167     H      0.350200000000     0.539600000000     0.715770000000     0.0355487  
H168     H      0.350470000000     0.966770000000     0.783820000000     0.0358059  
H169     H      0.039090000000     0.907030000000     0.715010000000     0.035737   
H170     H      0.467290000000     0.907220000000     0.784120000000     0.035667   
H171     H      0.466770000000     0.850470000000     0.783820000000     0.0357335  
H172     H      0.039610000000     0.850190000000     0.715770000000     0.0354505  
H173     H      0.040660000000     0.656910000000     0.718990000000     0.0350131  
H174     H      0.467880000000     0.657220000000     0.787100000000     0.0355665  
H175     H      0.468380000000     0.600370000000     0.787860000000     0.035373   
H176     H      0.040110000000     0.600160000000     0.718680000000     0.0334771  
H177     H      0.100190000000     0.968860000000     0.965530000000     0.0340801  
H178     H      0.100240000000     0.538500000000     0.536790000000     0.0341709  
H179     H      0.157040000000     0.539090000000     0.536180000000     0.0351761  
H180     H      0.157000000000     0.968370000000     0.965960000000     0.0354664  
H181     H      0.407030000000     0.538620000000     0.966160000000     0.0344355  
H182     H      0.407080000000     0.968740000000     0.537190000000     0.0345733  
H183     H      0.350270000000     0.968250000000     0.536750000000     0.0356857  
H184     H      0.350230000000     0.539210000000     0.966780000000     0.0353568  
H185     H      0.468720000000     0.907080000000     0.537170000000     0.0355465  
H186     H      0.038650000000     0.907020000000     0.966180000000     0.0345178  
H187     H      0.039240000000     0.850220000000     0.966800000000     0.0351699  
H188     H      0.468230000000     0.850260000000     0.536730000000     0.0356135  
H189     H      0.468860000000     0.600190000000     0.965530000000     0.0342282  
H190     H      0.038510000000     0.600240000000     0.536790000000     0.0334131  
H191     H      0.039100000000     0.657030000000     0.536180000000     0.0349673  
H192     H      0.468380000000     0.657000000000     0.965960000000     0.0353355  
H193     H      0.753750000000     0.054370000000     0.404530000000     0.0386567  
H194     H      0.755120000000     0.454340000000     0.404360000000     0.0387724  
H195     H      0.755410000000     0.454410000000     0.348390000000     0.0386485  
H196     H      0.754050000000     0.054450000000     0.348390000000     0.0387001  
H197     H      0.753570000000     0.553130000000     0.098480000000     0.038411   
H198     H      0.752220000000     0.953090000000     0.098290000000     0.038043   
H199     H      0.751980000000     0.953020000000     0.154430000000     0.0384182  
H200     H      0.753330000000     0.553050000000     0.154450000000     0.0384743  
H201     H      0.954350000000     0.255110000000     0.404360000000     0.0381658  
H202     H      0.554380000000     0.253740000000     0.404530000000     0.038888   
H203     H      0.554460000000     0.254050000000     0.348400000000     0.0389234  
H204     H      0.954420000000     0.255410000000     0.348390000000     0.0380125  
H205     H      0.953100000000     0.252210000000     0.098300000000     0.0380338  
H206     H      0.553130000000     0.253560000000     0.098480000000     0.0383513  
H207     H      0.553060000000     0.253320000000     0.154450000000     0.0383882  
H208     H      0.953030000000     0.251970000000     0.154440000000     0.038316   
H209     H      0.600170000000     0.040110000000     0.218680000000     0.033435   
H210     H      0.600380000000     0.468370000000     0.287850000000     0.0352245  
H211     H      0.657220000000     0.467870000000     0.287100000000     0.0353731  
H212     H      0.656920000000     0.040650000000     0.218990000000     0.034923   
H213     H      0.907220000000     0.467290000000     0.284130000000     0.0354822  
H214     H      0.907040000000     0.039070000000     0.215010000000     0.0356574  
H215     H      0.850190000000     0.039600000000     0.215770000000     0.0353648  
H216     H      0.850470000000     0.466770000000     0.283820000000     0.0355068  
H217     H      0.539090000000     0.407030000000     0.215010000000     0.0353607  
H218     H      0.967290000000     0.407220000000     0.284120000000     0.0344823  
H219     H      0.966770000000     0.350470000000     0.283810000000     0.0355684  
H220     H      0.539610000000     0.350190000000     0.215780000000     0.0354454  
H221     H      0.540660000000     0.156910000000     0.218990000000     0.0351182  
H222     H      0.967880000000     0.157220000000     0.287100000000     0.035456   
H223     H      0.968380000000     0.100370000000     0.287860000000     0.0350289  
H224     H      0.540110000000     0.100160000000     0.218680000000     0.0341537  
H225     H      0.600190000000     0.468860000000     0.465530000000     0.0344455  
H226     H      0.600240000000     0.038500000000     0.036790000000     0.032887   
H227     H      0.657040000000     0.039090000000     0.036180000000     0.034527   
H228     H      0.657000000000     0.468370000000     0.465960000000     0.0353346  
H229     H      0.907030000000     0.038620000000     0.466160000000     0.0344399  
H230     H      0.907080000000     0.468740000000     0.037190000000     0.035264   
H231     H      0.850270000000     0.468250000000     0.036750000000     0.0346427  
H232     H      0.850230000000     0.039210000000     0.466780000000     0.0351982  
H233     H      0.968720000000     0.407080000000     0.037170000000     0.0343227  
H234     H      0.538650000000     0.407020000000     0.466180000000     0.0343367  
H235     H      0.539240000000     0.350230000000     0.466800000000     0.0353307  
H236     H      0.968230000000     0.350260000000     0.036730000000     0.0346703  
H237     H      0.968860000000     0.100190000000     0.465530000000     0.0343331  
H238     H      0.538510000000     0.100240000000     0.036790000000     0.0336284  
H239     H      0.539100000000     0.157030000000     0.036180000000     0.0347018  
H240     H      0.968380000000     0.157000000000     0.465960000000     0.0354399  
H241     H      0.753750000000     0.054370000000     0.904530000000     0.0398793  
H242     H      0.755120000000     0.454340000000     0.904360000000     0.0399346  
H243     H      0.755410000000     0.454410000000     0.848390000000     0.0389174  
H244     H      0.754050000000     0.054450000000     0.848400000000     0.0389899  
H245     H      0.753570000000     0.553130000000     0.598480000000     0.0387509  
H246     H      0.752210000000     0.953090000000     0.598290000000     0.0384516  
H247     H      0.751980000000     0.953020000000     0.654440000000     0.0386198  
H248     H      0.753330000000     0.553050000000     0.654450000000     0.0386572  
H249     H      0.954350000000     0.255110000000     0.904360000000     0.039318   
H250     H      0.554380000000     0.253740000000     0.904540000000     0.0401074  
H251     H      0.554450000000     0.254050000000     0.848400000000     0.0392398  
H252     H      0.954420000000     0.255410000000     0.848390000000     0.0382799  
H253     H      0.953100000000     0.252210000000     0.598300000000     0.0384485  
H254     H      0.553130000000     0.253560000000     0.598480000000     0.0386904  
H255     H      0.553060000000     0.253320000000     0.654450000000     0.0385847  
H256     H      0.953020000000     0.251970000000     0.654440000000     0.0384948  
H257     H      0.600170000000     0.040110000000     0.718680000000     0.0334927  
H258     H      0.600380000000     0.468370000000     0.787850000000     0.0353935  
H259     H      0.657220000000     0.467870000000     0.787100000000     0.0355762  
H260     H      0.656920000000     0.040650000000     0.719000000000     0.0350273  
H261     H      0.907230000000     0.467290000000     0.784130000000     0.0356605  
H262     H      0.907040000000     0.039070000000     0.715010000000     0.0357317  
H263     H      0.850190000000     0.039600000000     0.715770000000     0.035479   
H264     H      0.850470000000     0.466770000000     0.783820000000     0.0357349  
H265     H      0.539090000000     0.407030000000     0.715010000000     0.0354722  
H266     H      0.967290000000     0.407220000000     0.784120000000     0.0346772  
H267     H      0.966770000000     0.350470000000     0.783820000000     0.0357739  
H268     H      0.539610000000     0.350190000000     0.715770000000     0.0355271  
H269     H      0.540650000000     0.156910000000     0.718990000000     0.0352184  
H270     H      0.967880000000     0.157220000000     0.787100000000     0.0356549  
H271     H      0.968380000000     0.100370000000     0.787860000000     0.0351993  
H272     H      0.540110000000     0.100160000000     0.718680000000     0.0342104  
H273     H      0.600190000000     0.468860000000     0.965530000000     0.0342078  
H274     H      0.600250000000     0.038500000000     0.536790000000     0.0334351  
H275     H      0.657040000000     0.039090000000     0.536180000000     0.0349713  
H276     H      0.657000000000     0.468370000000     0.965960000000     0.0353287  
H277     H      0.907030000000     0.038620000000     0.966160000000     0.0345259  
H278     H      0.907080000000     0.468740000000     0.537190000000     0.0355561  
H279     H      0.850270000000     0.468250000000     0.536750000000     0.0356073  
H280     H      0.850230000000     0.039210000000     0.966780000000     0.0352138  
H281     H      0.968720000000     0.407080000000     0.537170000000     0.0345876  
H282     H      0.538650000000     0.407020000000     0.966180000000     0.034439   
H283     H      0.539240000000     0.350230000000     0.966800000000     0.0353127  
H284     H      0.968230000000     0.350260000000     0.536730000000     0.0356811  
H285     H      0.968860000000     0.100190000000     0.965530000000     0.034106   
H286     H      0.538510000000     0.100240000000     0.536790000000     0.0341758  
H287     H      0.539100000000     0.157030000000     0.536180000000     0.0351626  
H288     H      0.968380000000     0.157000000000     0.965960000000     0.0354455  
H289     H      0.753750000000     0.554370000000     0.404530000000     0.0389273  
H290     H      0.755120000000     0.954340000000     0.404360000000     0.0382129  
H291     H      0.755410000000     0.954420000000     0.348390000000     0.0380896  
H292     H      0.754050000000     0.554450000000     0.348390000000     0.0389801  
H293     H      0.753570000000     0.053130000000     0.098480000000     0.0381707  
H294     H      0.752210000000     0.453100000000     0.098290000000     0.0385658  
H295     H      0.751980000000     0.453020000000     0.154430000000     0.0388158  
H296     H      0.753330000000     0.053050000000     0.154450000000     0.038282   
H297     H      0.954350000000     0.755110000000     0.404360000000     0.0382255  
H298     H      0.554380000000     0.753750000000     0.404530000000     0.0389341  
H299     H      0.554450000000     0.754050000000     0.348400000000     0.0390003  
H300     H      0.954420000000     0.755410000000     0.348390000000     0.0380682  
H301     H      0.953100000000     0.752210000000     0.098300000000     0.0380925  
H302     H      0.553130000000     0.753560000000     0.098480000000     0.0384071  
H303     H      0.553060000000     0.753320000000     0.154450000000     0.0384586  
H304     H      0.953020000000     0.751980000000     0.154440000000     0.0383536  
H305     H      0.600170000000     0.540110000000     0.218680000000     0.0342278  
H306     H      0.600380000000     0.968370000000     0.287850000000     0.0352065  
H307     H      0.657220000000     0.967870000000     0.287100000000     0.0354986  
H308     H      0.656920000000     0.540650000000     0.218990000000     0.0351551  
H309     H      0.907230000000     0.967290000000     0.284130000000     0.0354367  
H310     H      0.907040000000     0.539070000000     0.215010000000     0.0365094  
H311     H      0.850190000000     0.539600000000     0.215770000000     0.0356303  
H312     H      0.850470000000     0.966770000000     0.283820000000     0.0357046  
H313     H      0.539090000000     0.907030000000     0.215010000000     0.036498   
H314     H      0.967290000000     0.907220000000     0.284120000000     0.0354473  
H315     H      0.966770000000     0.850470000000     0.283810000000     0.0357041  
H316     H      0.539610000000     0.850190000000     0.215780000000     0.0356328  
H317     H      0.540650000000     0.656910000000     0.218990000000     0.0351579  
H318     H      0.967880000000     0.657220000000     0.287100000000     0.0355091  
H319     H      0.968380000000     0.600370000000     0.287860000000     0.035186   
H320     H      0.540110000000     0.600160000000     0.218680000000     0.0342125  
H321     H      0.600190000000     0.968860000000     0.465530000000     0.0344021  
H322     H      0.600250000000     0.538500000000     0.036790000000     0.0336957  
H323     H      0.657040000000     0.539090000000     0.036180000000     0.0347422  
H324     H      0.657000000000     0.968370000000     0.465960000000     0.0355157  
H325     H      0.907030000000     0.538620000000     0.466160000000     0.0353103  
H326     H      0.907080000000     0.968740000000     0.037190000000     0.0352838  
H327     H      0.850270000000     0.968250000000     0.036750000000     0.0348702  
H328     H      0.850230000000     0.539210000000     0.466780000000     0.0354655  
H329     H      0.968720000000     0.907080000000     0.037170000000     0.035288   
H330     H      0.538650000000     0.907020000000     0.466180000000     0.0352783  
H331     H      0.539240000000     0.850220000000     0.466800000000     0.0354581  
H332     H      0.968230000000     0.850260000000     0.036730000000     0.034855   
H333     H      0.968860000000     0.600190000000     0.465530000000     0.0344251  
H334     H      0.538510000000     0.600240000000     0.036790000000     0.0336891  
H335     H      0.539100000000     0.657030000000     0.036180000000     0.0347434  
H336     H      0.968380000000     0.657000000000     0.465960000000     0.0355014  
H337     H      0.753750000000     0.554370000000     0.904530000000     0.0401538  
H338     H      0.755120000000     0.954340000000     0.904360000000     0.0393718  
H339     H      0.755420000000     0.954420000000     0.848390000000     0.0383601  
H340     H      0.754050000000     0.554450000000     0.848400000000     0.0392687  
H341     H      0.753570000000     0.053130000000     0.598480000000     0.0385087  
H342     H      0.752220000000     0.453100000000     0.598290000000     0.0389765  
H343     H      0.751980000000     0.453020000000     0.654440000000     0.0390146  
H344     H      0.753330000000     0.053050000000     0.654450000000     0.0384652  
H345     H      0.954350000000     0.755110000000     0.904360000000     0.039377   
H346     H      0.554380000000     0.753750000000     0.904540000000     0.0401638  
H347     H      0.554460000000     0.754050000000     0.848400000000     0.0392743  
H348     H      0.954420000000     0.755410000000     0.848390000000     0.0383356  
H349     H      0.953100000000     0.752210000000     0.598300000000     0.0385027  
H350     H      0.553130000000     0.753560000000     0.598480000000     0.0387793  
H351     H      0.553060000000     0.753320000000     0.654450000000     0.0386407  
H352     H      0.953020000000     0.751980000000     0.654440000000     0.0385525  
H353     H      0.600170000000     0.540110000000     0.718680000000     0.0342904  
H354     H      0.600380000000     0.968370000000     0.787850000000     0.0353685  
H355     H      0.657220000000     0.967870000000     0.787100000000     0.0357077  
H356     H      0.656920000000     0.540650000000     0.719000000000     0.0352602  
H357     H      0.907230000000     0.967290000000     0.784130000000     0.0356073  
H358     H      0.907040000000     0.539070000000     0.715010000000     0.0365909  
H359     H      0.850190000000     0.539600000000     0.715770000000     0.0357324  
H360     H      0.850470000000     0.966770000000     0.783820000000     0.0359429  
H361     H      0.539090000000     0.907030000000     0.715010000000     0.0365939  
H362     H      0.967290000000     0.907220000000     0.784120000000     0.0356417  
H363     H      0.966770000000     0.850470000000     0.783820000000     0.0359093  
H364     H      0.539610000000     0.850190000000     0.715770000000     0.03572    
H365     H      0.540650000000     0.656910000000     0.718990000000     0.0352507  
H366     H      0.967880000000     0.657220000000     0.787100000000     0.0356968  
H367     H      0.968380000000     0.600370000000     0.787860000000     0.0353815  
H368     H      0.540110000000     0.600160000000     0.718680000000     0.0342704  
H369     H      0.600190000000     0.968860000000     0.965530000000     0.0341746  
H370     H      0.600250000000     0.538500000000     0.536790000000     0.0342509  
H371     H      0.657040000000     0.539090000000     0.536180000000     0.0352017  
H372     H      0.657000000000     0.968370000000     0.965960000000     0.0355241  
H373     H      0.907030000000     0.538620000000     0.966160000000     0.0353891  
H374     H      0.907080000000     0.968740000000     0.537190000000     0.0355693  
H375     H      0.850270000000     0.968250000000     0.536750000000     0.0358452  
H376     H      0.850230000000     0.539210000000     0.966780000000     0.0354956  
H377     H      0.968720000000     0.907080000000     0.537170000000     0.0355654  
H378     H      0.538650000000     0.907020000000     0.966180000000     0.0353764  
H379     H      0.539240000000     0.850220000000     0.966800000000     0.035456   
H380     H      0.968230000000     0.850260000000     0.536730000000     0.0358428  
H381     H      0.968860000000     0.600190000000     0.965530000000     0.0341981  
H382     H      0.538510000000     0.600240000000     0.536790000000     0.0342409  
H383     H      0.539100000000     0.657030000000     0.536180000000     0.0352074  
H384     H      0.968380000000     0.657000000000     0.965960000000     0.0355051  
O1       O      0.503910000000     0.047620000000     0.027090000000    -0.538802   
O2       O      0.003490000000     0.459770000000     0.027340000000    -0.541492   
O3       O      0.047620000000     0.003910000000     0.027090000000    -0.539961   
O4       O      0.459780000000     0.503490000000     0.027340000000    -0.539763   
O5       O      0.459640000000     0.003770000000     0.475740000000    -0.543491   
O6       O      0.047490000000     0.503350000000     0.475500000000    -0.541265   
O7       O      0.503770000000     0.459630000000     0.475740000000    -0.542642   
O8       O      0.003350000000     0.047480000000     0.475500000000    -0.542775   
O9       O      0.004630000000     0.048220000000     0.226630000000    -0.543603   
O10      O      0.504590000000     0.460390000000     0.224650000000    -0.541028   
O11      O      0.460400000000     0.004590000000     0.224650000000    -0.541914   
O12      O      0.048230000000     0.504620000000     0.226630000000    -0.542749   
O13      O      0.047010000000     0.002810000000     0.278180000000    -0.541308   
O14      O      0.459180000000     0.502770000000     0.276200000000    -0.544024   
O15      O      0.002780000000     0.459170000000     0.276200000000    -0.545745   
O16      O      0.502810000000     0.047000000000     0.278180000000    -0.539554   
O17      O      0.029250000000     0.254130000000     0.045300000000    -0.539864   
O18      O      0.029950000000     0.253150000000     0.457850000000    -0.540735   
O19      O      0.029630000000     0.297550000000     0.000860000000    -0.542049   
O20      O      0.029620000000     0.209720000000     0.502310000000    -0.540444   
O21      O      0.477860000000     0.209720000000     0.999980000000    -0.526961   
O22      O      0.477850000000     0.297550000000     0.502520000000    -0.542375   
O23      O      0.478230000000     0.254730000000     0.457550000000    -0.543444   
O24      O      0.477530000000     0.252550000000     0.044980000000    -0.540358   
O25      O      0.477430000000     0.252820000000     0.207970000000    -0.542004   
O26      O      0.478310000000     0.254300000000     0.295420000000    -0.544911   
O27      O      0.477610000000     0.297480000000     0.251210000000    -0.542746   
O28      O      0.478060000000     0.209640000000     0.252770000000    -0.542473   
O29      O      0.029860000000     0.209910000000     0.251600000000    -0.540358   
O30      O      0.029410000000     0.297750000000     0.250090000000    -0.540098   
O31      O      0.030050000000     0.254530000000     0.294860000000    -0.539718   
O32      O      0.029160000000     0.253130000000     0.207420000000    -0.542792   
O33      O      0.252550000000     0.477520000000     0.044980000000    -0.54031    
O34      O      0.254730000000     0.478230000000     0.457550000000    -0.543619   
O35      O      0.297550000000     0.477840000000     0.002520000000    -0.541537   
O36      O      0.209730000000     0.477860000000     0.499980000000    -0.542306   
O37      O      0.209720000000     0.029620000000     0.002310000000    -0.538425   
O38      O      0.297560000000     0.029630000000     0.500860000000    -0.54005    
O39      O      0.253150000000     0.029940000000     0.457850000000    -0.540805   
O40      O      0.254130000000     0.029240000000     0.045300000000    -0.539924   
O41      O      0.252830000000     0.477420000000     0.207970000000    -0.541864   
O42      O      0.254300000000     0.478300000000     0.295420000000    -0.544909   
O43      O      0.209650000000     0.478050000000     0.252770000000    -0.542425   
O44      O      0.297490000000     0.477600000000     0.251210000000    -0.542462   
O45      O      0.297760000000     0.029400000000     0.250090000000    -0.54017    
O46      O      0.209920000000     0.029860000000     0.251600000000    -0.540319   
O47      O      0.254540000000     0.030040000000     0.294860000000    -0.539709   
O48      O      0.253140000000     0.029150000000     0.207420000000    -0.542831   
O49      O      0.503910000000     0.047620000000     0.527090000000    -0.541217   
O50      O      0.003490000000     0.459770000000     0.527340000000    -0.544108   
O51      O      0.047620000000     0.003910000000     0.527090000000    -0.542431   
O52      O      0.459770000000     0.503490000000     0.527340000000    -0.542434   
O53      O      0.459640000000     0.003770000000     0.975740000000    -0.536272   
O54      O      0.047490000000     0.503350000000     0.975500000000    -0.533851   
O55      O      0.503770000000     0.459630000000     0.975740000000    -0.535219   
O56      O      0.003350000000     0.047480000000     0.975500000000    -0.535387   
O57      O      0.004630000000     0.048220000000     0.726630000000    -0.543569   
O58      O      0.504600000000     0.460390000000     0.724650000000    -0.540987   
O59      O      0.460400000000     0.004590000000     0.724650000000    -0.541887   
O60      O      0.048230000000     0.504620000000     0.726630000000    -0.542715   
O61      O      0.047010000000     0.002810000000     0.778180000000    -0.5412     
O62      O      0.459180000000     0.502770000000     0.776200000000    -0.543951   
O63      O      0.002780000000     0.459170000000     0.776200000000    -0.545651   
O64      O      0.502810000000     0.047000000000     0.778180000000    -0.539445   
O65      O      0.029250000000     0.254130000000     0.545310000000    -0.541173   
O66      O      0.029950000000     0.253150000000     0.957850000000    -0.533497   
O67      O      0.029630000000     0.297550000000     0.500860000000    -0.540185   
O68      O      0.029620000000     0.209720000000     0.002310000000    -0.538886   
O69      O      0.477860000000     0.209720000000     0.499990000000    -0.542152   
O70      O      0.477850000000     0.297550000000     0.002520000000    -0.541599   
O71      O      0.478230000000     0.254730000000     0.957550000000    -0.535093   
O72      O      0.477530000000     0.252550000000     0.544980000000    -0.542938   
O73      O      0.477420000000     0.252820000000     0.707970000000    -0.54175    
O74      O      0.478310000000     0.254300000000     0.795420000000    -0.544842   
O75      O      0.477610000000     0.297480000000     0.751210000000    -0.542665   
O76      O      0.478060000000     0.209640000000     0.752770000000    -0.542288   
O77      O      0.029860000000     0.209910000000     0.751610000000    -0.540227   
O78      O      0.029410000000     0.297750000000     0.750090000000    -0.539979   
O79      O      0.030050000000     0.254530000000     0.794870000000    -0.539473   
O80      O      0.029160000000     0.253130000000     0.707420000000    -0.542707   
O81      O      0.252550000000     0.477520000000     0.544980000000    -0.542824   
O82      O      0.254730000000     0.478230000000     0.957540000000    -0.53513    
O83      O      0.297550000000     0.477840000000     0.502520000000    -0.542352   
O84      O      0.209730000000     0.477860000000     0.999980000000    -0.526992   
O85      O      0.209720000000     0.029620000000     0.502310000000    -0.540008   
O86      O      0.297560000000     0.029630000000     0.000860000000    -0.54187    
O87      O      0.253150000000     0.029940000000     0.957850000000    -0.533525   
O88      O      0.254130000000     0.029240000000     0.545300000000    -0.541376   
O89      O      0.252830000000     0.477420000000     0.707970000000    -0.541811   
O90      O      0.254300000000     0.478300000000     0.795420000000    -0.544809   
O91      O      0.209650000000     0.478050000000     0.752770000000    -0.542175   
O92      O      0.297490000000     0.477600000000     0.751210000000    -0.542559   
O93      O      0.297760000000     0.029400000000     0.750090000000    -0.54006    
O94      O      0.209920000000     0.029860000000     0.751600000000    -0.540249   
O95      O      0.254540000000     0.030040000000     0.794860000000    -0.539591   
O96      O      0.253140000000     0.029150000000     0.707420000000    -0.542784   
O97      O      0.503910000000     0.547620000000     0.027090000000    -0.540182   
O98      O      0.003490000000     0.959770000000     0.027340000000    -0.534962   
O99      O      0.047620000000     0.503910000000     0.027090000000    -0.539056   
O100     O      0.459780000000     0.003490000000     0.027340000000    -0.54139    
O101     O      0.459640000000     0.503770000000     0.475740000000    -0.542724   
O102     O      0.047490000000     0.003350000000     0.475500000000    -0.542904   
O103     O      0.503770000000     0.959630000000     0.475740000000    -0.536163   
O104     O      0.003350000000     0.547480000000     0.475500000000    -0.544143   
O105     O      0.004630000000     0.548220000000     0.226630000000    -0.545033   
O106     O      0.504600000000     0.960390000000     0.224650000000    -0.534544   
O107     O      0.460400000000     0.504590000000     0.224650000000    -0.540909   
O108     O      0.048230000000     0.004620000000     0.226630000000    -0.543709   
O109     O      0.047010000000     0.502810000000     0.278180000000    -0.539676   
O110     O      0.459180000000     0.002770000000     0.276200000000    -0.545647   
O111     O      0.002780000000     0.959170000000     0.276200000000    -0.53942    
O112     O      0.502810000000     0.547000000000     0.278180000000    -0.540877   
O113     O      0.029250000000     0.754130000000     0.045300000000    -0.539834   
O114     O      0.029950000000     0.753140000000     0.457850000000    -0.5407     
O115     O      0.029630000000     0.797550000000     0.000860000000    -0.542161   
O116     O      0.029620000000     0.709720000000     0.502310000000    -0.540238   
O117     O      0.477860000000     0.709720000000     0.999980000000    -0.526812   
O118     O      0.477850000000     0.797550000000     0.502520000000    -0.542333   
O119     O      0.478230000000     0.754730000000     0.457550000000    -0.543411   
O120     O      0.477530000000     0.752550000000     0.044980000000    -0.540436   
O121     O      0.477420000000     0.752830000000     0.207970000000    -0.541775   
O122     O      0.478310000000     0.754290000000     0.295420000000    -0.544876   
O123     O      0.477610000000     0.797480000000     0.251210000000    -0.542691   
O124     O      0.478060000000     0.709640000000     0.252770000000    -0.542366   
O125     O      0.029860000000     0.709910000000     0.251600000000    -0.540311   
O126     O      0.029410000000     0.797760000000     0.250090000000    -0.539895   
O127     O      0.030050000000     0.754530000000     0.294860000000    -0.539652   
O128     O      0.029160000000     0.753130000000     0.207420000000    -0.542736   
O129     O      0.252550000000     0.977520000000     0.044980000000    -0.534103   
O130     O      0.254730000000     0.978230000000     0.457550000000    -0.537412   
O131     O      0.297550000000     0.977840000000     0.002520000000    -0.535228   
O132     O      0.209730000000     0.977850000000     0.499980000000    -0.535787   
O133     O      0.209720000000     0.529620000000     0.002310000000    -0.540774   
O134     O      0.297560000000     0.529630000000     0.500860000000    -0.542343   
O135     O      0.253150000000     0.529940000000     0.457850000000    -0.543021   
O136     O      0.254130000000     0.529240000000     0.045300000000    -0.542145   
O137     O      0.252830000000     0.977420000000     0.207970000000    -0.535446   
O138     O      0.254300000000     0.978300000000     0.295420000000    -0.538733   
O139     O      0.209650000000     0.978060000000     0.252770000000    -0.536037   
O140     O      0.297490000000     0.977600000000     0.251210000000    -0.536233   
O141     O      0.297760000000     0.529400000000     0.250090000000    -0.542503   
O142     O      0.209920000000     0.529860000000     0.251600000000    -0.542615   
O143     O      0.254540000000     0.530040000000     0.294860000000    -0.541927   
O144     O      0.253140000000     0.529150000000     0.207420000000    -0.545228   
O145     O      0.503910000000     0.547620000000     0.527090000000    -0.542569   
O146     O      0.003490000000     0.959770000000     0.527340000000    -0.537589   
O147     O      0.047620000000     0.503910000000     0.527090000000    -0.541476   
O148     O      0.459780000000     0.003490000000     0.527340000000    -0.543975   
O149     O      0.459640000000     0.503770000000     0.975740000000    -0.535083   
O150     O      0.047490000000     0.003350000000     0.975500000000    -0.535509   
O151     O      0.503770000000     0.959630000000     0.975740000000    -0.528784   
O152     O      0.003350000000     0.547480000000     0.975500000000    -0.53673    
O153     O      0.004630000000     0.548220000000     0.726630000000    -0.544997   
O154     O      0.504600000000     0.960390000000     0.724650000000    -0.534512   
O155     O      0.460400000000     0.504590000000     0.724650000000    -0.540903   
O156     O      0.048230000000     0.004620000000     0.726630000000    -0.543676   
O157     O      0.047010000000     0.502810000000     0.778180000000    -0.539567   
O158     O      0.459180000000     0.002770000000     0.776200000000    -0.545551   
O159     O      0.002780000000     0.959170000000     0.776200000000    -0.539328   
O160     O      0.502820000000     0.547000000000     0.778180000000    -0.540779   
O161     O      0.029250000000     0.754130000000     0.545310000000    -0.541144   
O162     O      0.029950000000     0.753140000000     0.957850000000    -0.533464   
O163     O      0.029630000000     0.797550000000     0.500860000000    -0.540304   
O164     O      0.029620000000     0.709720000000     0.002310000000    -0.538682   
O165     O      0.477860000000     0.709720000000     0.499990000000    -0.542102   
O166     O      0.477850000000     0.797550000000     0.002520000000    -0.541548   
O167     O      0.478230000000     0.754730000000     0.957550000000    -0.535061   
O168     O      0.477530000000     0.752550000000     0.544980000000    -0.54291    
O169     O      0.477420000000     0.752830000000     0.707970000000    -0.541733   
O170     O      0.478310000000     0.754290000000     0.795420000000    -0.544834   
O171     O      0.477610000000     0.797480000000     0.751210000000    -0.54263    
O172     O      0.478060000000     0.709640000000     0.752770000000    -0.542405   
O173     O      0.029860000000     0.709910000000     0.751610000000    -0.540182   
O174     O      0.029410000000     0.797760000000     0.750090000000    -0.539776   
O175     O      0.030050000000     0.754530000000     0.794870000000    -0.539408   
O176     O      0.029160000000     0.753130000000     0.707420000000    -0.542649   
O177     O      0.252550000000     0.977520000000     0.544980000000    -0.536596   
O178     O      0.254730000000     0.978230000000     0.957540000000    -0.528959   
O179     O      0.297550000000     0.977840000000     0.502520000000    -0.536023   
O180     O      0.209730000000     0.977850000000     0.999980000000    -0.520547   
O181     O      0.209720000000     0.529620000000     0.502310000000    -0.542372   
O182     O      0.297560000000     0.529630000000     0.000860000000    -0.544162   
O183     O      0.253150000000     0.529940000000     0.957850000000    -0.535717   
O184     O      0.254130000000     0.529240000000     0.545300000000    -0.543608   
O185     O      0.252830000000     0.977420000000     0.707970000000    -0.535396   
O186     O      0.254300000000     0.978300000000     0.795420000000    -0.538632   
O187     O      0.209650000000     0.978060000000     0.752770000000    -0.536133   
O188     O      0.297490000000     0.977600000000     0.751210000000    -0.535986   
O189     O      0.297760000000     0.529400000000     0.750090000000    -0.542443   
O190     O      0.209920000000     0.529860000000     0.751600000000    -0.542497   
O191     O      0.254540000000     0.530040000000     0.794860000000    -0.541809   
O192     O      0.253140000000     0.529150000000     0.707420000000    -0.545181   
O193     O      0.003910000000     0.047620000000     0.027090000000    -0.539728   
O194     O      0.503490000000     0.459770000000     0.027340000000    -0.539889   
O195     O      0.547620000000     0.003910000000     0.027090000000    -0.541373   
O196     O      0.959780000000     0.503490000000     0.027340000000    -0.533373   
O197     O      0.959640000000     0.003770000000     0.475740000000    -0.537097   
O198     O      0.547490000000     0.503350000000     0.475500000000    -0.542437   
O199     O      0.003770000000     0.459630000000     0.475740000000    -0.543635   
O200     O      0.503350000000     0.047480000000     0.475500000000    -0.541133   
O201     O      0.504630000000     0.048220000000     0.226630000000    -0.542636   
O202     O      0.004590000000     0.460390000000     0.224650000000    -0.542018   
O203     O      0.960400000000     0.004590000000     0.224650000000    -0.535406   
O204     O      0.548230000000     0.504620000000     0.226630000000    -0.544175   
O205     O      0.547010000000     0.002810000000     0.278180000000    -0.54262    
O206     O      0.959180000000     0.502770000000     0.276200000000    -0.537706   
O207     O      0.502780000000     0.459170000000     0.276200000000    -0.544135   
O208     O      0.002810000000     0.047000000000     0.278180000000    -0.541194   
O209     O      0.529250000000     0.254130000000     0.045300000000    -0.542227   
O210     O      0.529950000000     0.253150000000     0.457850000000    -0.542986   
O211     O      0.529630000000     0.297550000000     0.000860000000    -0.544368   
O212     O      0.529620000000     0.209720000000     0.502310000000    -0.542766   
O213     O      0.977860000000     0.209720000000     0.999980000000    -0.520563   
O214     O      0.977850000000     0.297550000000     0.502520000000    -0.536008   
O215     O      0.978230000000     0.254730000000     0.457550000000    -0.5372     
O216     O      0.977530000000     0.252550000000     0.044980000000    -0.534202   
O217     O      0.977430000000     0.252820000000     0.207970000000    -0.535633   
O218     O      0.978310000000     0.254300000000     0.295420000000    -0.538772   
O219     O      0.977610000000     0.297480000000     0.251210000000    -0.536385   
O220     O      0.978060000000     0.209640000000     0.252770000000    -0.536098   
O221     O      0.529860000000     0.209910000000     0.251600000000    -0.542679   
O222     O      0.529410000000     0.297750000000     0.250090000000    -0.542419   
O223     O      0.530050000000     0.254530000000     0.294860000000    -0.541898   
O224     O      0.529160000000     0.253130000000     0.207420000000    -0.545148   
O225     O      0.752550000000     0.477520000000     0.044980000000    -0.540285   
O226     O      0.754730000000     0.478230000000     0.457550000000    -0.543586   
O227     O      0.797550000000     0.477840000000     0.002520000000    -0.54146    
O228     O      0.709730000000     0.477860000000     0.499980000000    -0.542312   
O229     O      0.709720000000     0.029620000000     0.002310000000    -0.538521   
O230     O      0.797560000000     0.029630000000     0.500860000000    -0.539978   
O231     O      0.753150000000     0.029940000000     0.457850000000    -0.540788   
O232     O      0.754130000000     0.029240000000     0.045300000000    -0.539895   
O233     O      0.752830000000     0.477420000000     0.207970000000    -0.541832   
O234     O      0.754300000000     0.478300000000     0.295420000000    -0.544886   
O235     O      0.709640000000     0.478050000000     0.252770000000    -0.542351   
O236     O      0.797480000000     0.477600000000     0.251210000000    -0.542469   
O237     O      0.797760000000     0.029400000000     0.250090000000    -0.540089   
O238     O      0.709920000000     0.029860000000     0.251600000000    -0.540337   
O239     O      0.754540000000     0.030040000000     0.294860000000    -0.539678   
O240     O      0.753130000000     0.029150000000     0.207420000000    -0.542806   
O241     O      0.003910000000     0.047620000000     0.527090000000    -0.542178   
O242     O      0.503490000000     0.459770000000     0.527340000000    -0.542469   
O243     O      0.547620000000     0.003910000000     0.527090000000    -0.543819   
O244     O      0.959780000000     0.503490000000     0.527340000000    -0.53596    
O245     O      0.959640000000     0.003770000000     0.975740000000    -0.529776   
O246     O      0.547490000000     0.503350000000     0.975500000000    -0.535198   
O247     O      0.003770000000     0.459630000000     0.975740000000    -0.536236   
O248     O      0.503350000000     0.047480000000     0.975500000000    -0.533723   
O249     O      0.504630000000     0.048220000000     0.726630000000    -0.542602   
O250     O      0.004590000000     0.460390000000     0.724650000000    -0.541986   
O251     O      0.960400000000     0.004590000000     0.724650000000    -0.535383   
O252     O      0.548230000000     0.504620000000     0.726630000000    -0.544122   
O253     O      0.547010000000     0.002810000000     0.778180000000    -0.542516   
O254     O      0.959180000000     0.502770000000     0.776200000000    -0.537618   
O255     O      0.502780000000     0.459170000000     0.776200000000    -0.544037   
O256     O      0.002810000000     0.047000000000     0.778180000000    -0.541084   
O257     O      0.529250000000     0.254130000000     0.545310000000    -0.543449   
O258     O      0.529950000000     0.253150000000     0.957850000000    -0.535726   
O259     O      0.529630000000     0.297550000000     0.500860000000    -0.542515   
O260     O      0.529620000000     0.209720000000     0.002310000000    -0.541093   
O261     O      0.977860000000     0.209720000000     0.499990000000    -0.535784   
O262     O      0.977850000000     0.297550000000     0.002520000000    -0.535255   
O263     O      0.978230000000     0.254730000000     0.957550000000    -0.52889    
O264     O      0.977530000000     0.252550000000     0.544980000000    -0.536658   
O265     O      0.977430000000     0.252820000000     0.707970000000    -0.535586   
O266     O      0.978310000000     0.254300000000     0.795420000000    -0.538727   
O267     O      0.977610000000     0.297480000000     0.751210000000    -0.536321   
O268     O      0.978060000000     0.209640000000     0.752770000000    -0.536032   
O269     O      0.529860000000     0.209910000000     0.751610000000    -0.542649   
O270     O      0.529410000000     0.297750000000     0.750090000000    -0.542301   
O271     O      0.530050000000     0.254530000000     0.794870000000    -0.541649   
O272     O      0.529160000000     0.253130000000     0.707420000000    -0.544976   
O273     O      0.752550000000     0.477520000000     0.544980000000    -0.542799   
O274     O      0.754730000000     0.478230000000     0.957540000000    -0.535098   
O275     O      0.797550000000     0.477840000000     0.502520000000    -0.542187   
O276     O      0.709730000000     0.477860000000     0.999980000000    -0.526997   
O277     O      0.709720000000     0.029620000000     0.502310000000    -0.540019   
O278     O      0.797560000000     0.029630000000     0.000860000000    -0.541797   
O279     O      0.753150000000     0.029940000000     0.957850000000    -0.533509   
O280     O      0.754130000000     0.029240000000     0.545300000000    -0.541347   
O281     O      0.752830000000     0.477420000000     0.707970000000    -0.541822   
O282     O      0.754300000000     0.478300000000     0.795420000000    -0.544823   
O283     O      0.709650000000     0.478050000000     0.752770000000    -0.542413   
O284     O      0.797480000000     0.477600000000     0.751210000000    -0.542451   
O285     O      0.797760000000     0.029400000000     0.750090000000    -0.540023   
O286     O      0.709920000000     0.029860000000     0.751600000000    -0.540235   
O287     O      0.754540000000     0.030040000000     0.794860000000    -0.539566   
O288     O      0.753140000000     0.029150000000     0.707420000000    -0.542765   
O289     O      0.003910000000     0.547620000000     0.027090000000    -0.541147   
O290     O      0.503490000000     0.959770000000     0.027340000000    -0.533411   
O291     O      0.547620000000     0.503910000000     0.027090000000    -0.540433   
O292     O      0.959770000000     0.003490000000     0.027340000000    -0.534827   
O293     O      0.959640000000     0.503770000000     0.475740000000    -0.536109   
O294     O      0.547490000000     0.003350000000     0.475500000000    -0.54427    
O295     O      0.003770000000     0.959630000000     0.475740000000    -0.537151   
O296     O      0.503350000000     0.547480000000     0.475500000000    -0.542509   
O297     O      0.504630000000     0.548220000000     0.226630000000    -0.544068   
O298     O      0.004590000000     0.960390000000     0.224650000000    -0.535531   
O299     O      0.960400000000     0.504590000000     0.224650000000    -0.534428   
O300     O      0.548230000000     0.004620000000     0.226630000000    -0.545118   
O301     O      0.547010000000     0.502810000000     0.278180000000    -0.540993   
O302     O      0.959180000000     0.002770000000     0.276200000000    -0.539312   
O303     O      0.502780000000     0.959170000000     0.276200000000    -0.53782    
O304     O      0.002810000000     0.547000000000     0.278180000000    -0.542514   
O305     O      0.529250000000     0.754130000000     0.045300000000    -0.542092   
O306     O      0.529950000000     0.753140000000     0.457850000000    -0.542946   
O307     O      0.529630000000     0.797550000000     0.000860000000    -0.544483   
O308     O      0.529620000000     0.709720000000     0.502310000000    -0.542552   
O309     O      0.977860000000     0.709720000000     0.999980000000    -0.520526   
O310     O      0.977850000000     0.797550000000     0.502520000000    -0.535988   
O311     O      0.978230000000     0.754730000000     0.457550000000    -0.537186   
O312     O      0.977530000000     0.752550000000     0.044980000000    -0.534195   
O313     O      0.977430000000     0.752830000000     0.207970000000    -0.535633   
O314     O      0.978310000000     0.754290000000     0.295420000000    -0.538776   
O315     O      0.977610000000     0.797480000000     0.251210000000    -0.53637    
O316     O      0.978060000000     0.709640000000     0.252770000000    -0.536125   
O317     O      0.529860000000     0.709910000000     0.251600000000    -0.542727   
O318     O      0.529410000000     0.797760000000     0.250090000000    -0.542211   
O319     O      0.530050000000     0.754530000000     0.294860000000    -0.541821   
O320     O      0.529160000000     0.753130000000     0.207420000000    -0.544998   
O321     O      0.752550000000     0.977520000000     0.044980000000    -0.534097   
O322     O      0.754730000000     0.978230000000     0.457550000000    -0.537398   
O323     O      0.797550000000     0.977840000000     0.002520000000    -0.535177   
O324     O      0.709730000000     0.977850000000     0.499980000000    -0.53581    
O325     O      0.709720000000     0.529620000000     0.002310000000    -0.54078    
O326     O      0.797560000000     0.529630000000     0.500860000000    -0.542175   
O327     O      0.753150000000     0.529940000000     0.457850000000    -0.542997   
O328     O      0.754130000000     0.529240000000     0.045300000000    -0.542109   
O329     O      0.752830000000     0.977420000000     0.207970000000    -0.535477   
O330     O      0.754300000000     0.978300000000     0.295420000000    -0.538766   
O331     O      0.709650000000     0.978060000000     0.252770000000    -0.536288   
O332     O      0.797480000000     0.977600000000     0.251210000000    -0.536179   
O333     O      0.797760000000     0.529400000000     0.250090000000    -0.542402   
O334     O      0.709920000000     0.529860000000     0.251600000000    -0.542651   
O335     O      0.754540000000     0.530040000000     0.294860000000    -0.541897   
O336     O      0.753140000000     0.529150000000     0.207420000000    -0.545203   
O337     O      0.003910000000     0.547620000000     0.527090000000    -0.54357    
O338     O      0.503490000000     0.959770000000     0.527340000000    -0.536003   
O339     O      0.547620000000     0.503910000000     0.527090000000    -0.542611   
O340     O      0.959780000000     0.003490000000     0.527340000000    -0.537546   
O341     O      0.959640000000     0.503770000000     0.975740000000    -0.528735   
O342     O      0.547490000000     0.003350000000     0.975500000000    -0.536683   
O343     O      0.003770000000     0.959630000000     0.975740000000    -0.529798   
O344     O      0.503350000000     0.547480000000     0.975500000000    -0.535072   
O345     O      0.504630000000     0.548220000000     0.726630000000    -0.544041   
O346     O      0.004590000000     0.960390000000     0.724650000000    -0.535497   
O347     O      0.960400000000     0.504590000000     0.724650000000    -0.534401   
O348     O      0.548230000000     0.004620000000     0.726630000000    -0.545091   
O349     O      0.547010000000     0.502810000000     0.778180000000    -0.540866   
O350     O      0.959180000000     0.002770000000     0.776200000000    -0.539224   
O351     O      0.502780000000     0.959170000000     0.776200000000    -0.537725   
O352     O      0.002810000000     0.547000000000     0.778180000000    -0.5424     
O353     O      0.529250000000     0.754130000000     0.545310000000    -0.543409   
O354     O      0.529950000000     0.753140000000     0.957850000000    -0.535684   
O355     O      0.529630000000     0.797550000000     0.500860000000    -0.542626   
O356     O      0.529620000000     0.709720000000     0.002310000000    -0.540984   
O357     O      0.977860000000     0.709720000000     0.499990000000    -0.535749   
O358     O      0.977850000000     0.797550000000     0.002520000000    -0.535228   
O359     O      0.978230000000     0.754730000000     0.957550000000    -0.528876   
O360     O      0.977530000000     0.752550000000     0.544980000000    -0.536652   
O361     O      0.977430000000     0.752830000000     0.707970000000    -0.535585   
O362     O      0.978310000000     0.754290000000     0.795420000000    -0.538731   
O363     O      0.977610000000     0.797480000000     0.751210000000    -0.536307   
O364     O      0.978060000000     0.709640000000     0.752770000000    -0.536061   
O365     O      0.529860000000     0.709910000000     0.751610000000    -0.542487   
O366     O      0.529410000000     0.797760000000     0.750090000000    -0.542088   
O367     O      0.530050000000     0.754530000000     0.794870000000    -0.541574   
O368     O      0.529160000000     0.753130000000     0.707420000000    -0.544909   
O369     O      0.752550000000     0.977520000000     0.544980000000    -0.536591   
O370     O      0.754730000000     0.978230000000     0.957540000000    -0.528947   
O371     O      0.797550000000     0.977840000000     0.502520000000    -0.535972   
O372     O      0.709730000000     0.977850000000     0.999980000000    -0.52065    
O373     O      0.709720000000     0.529620000000     0.502310000000    -0.542376   
O374     O      0.797560000000     0.529630000000     0.000860000000    -0.544082   
O375     O      0.753150000000     0.529940000000     0.957850000000    -0.535694   
O376     O      0.754130000000     0.529240000000     0.545300000000    -0.543571   
O377     O      0.752830000000     0.977420000000     0.707970000000    -0.535381   
O378     O      0.754300000000     0.978300000000     0.795420000000    -0.53863    
O379     O      0.709650000000     0.978060000000     0.752770000000    -0.535983   
O380     O      0.797490000000     0.977600000000     0.751210000000    -0.536109   
O381     O      0.797760000000     0.529400000000     0.750090000000    -0.542317   
O382     O      0.709920000000     0.529860000000     0.751600000000    -0.542523   
O383     O      0.754540000000     0.530040000000     0.794860000000    -0.541772   
O384     O      0.753140000000     0.529150000000     0.707420000000    -0.54515    
V1       V      0.003710000000     0.003700000000     0.029290000000     1.35872    
V2       V      0.003560000000     0.503550000000     0.473540000000     1.37788    
V3       V      0.504460000000     0.004450000000     0.223560000000     1.37799    
V4       V      0.502950000000     0.502940000000     0.279270000000     1.38592    
V5       V      0.031700000000     0.253630000000     0.001600000000     1.36771    
V6       V      0.475780000000     0.253640000000     0.501240000000     1.38511    
V7       V      0.475770000000     0.253550000000     0.251810000000     1.38559    
V8       V      0.031700000000     0.253840000000     0.251030000000     1.37593    
V9       V      0.253640000000     0.475780000000     0.001240000000     1.36483    
V10      V      0.253640000000     0.031690000000     0.501600000000     1.3757     
V11      V      0.253550000000     0.475760000000     0.251810000000     1.38541    
V12      V      0.253850000000     0.031690000000     0.251030000000     1.37581    
V13      V      0.003710000000     0.003700000000     0.529290000000     1.37043    
V14      V      0.003560000000     0.503550000000     0.973540000000     1.38399    
V15      V      0.504460000000     0.004450000000     0.723560000000     1.37786    
V16      V      0.502950000000     0.502940000000     0.779270000000     1.38621    
V17      V      0.031700000000     0.253630000000     0.501600000000     1.37578    
V18      V      0.475780000000     0.253640000000     0.001240000000     1.3649     
V19      V      0.475770000000     0.253550000000     0.751810000000     1.38571    
V20      V      0.031700000000     0.253840000000     0.751030000000     1.37578    
V21      V      0.253640000000     0.475780000000     0.501240000000     1.38529    
V22      V      0.253640000000     0.031690000000     0.001600000000     1.36737    
V23      V      0.253560000000     0.475760000000     0.751810000000     1.38557    
V24      V      0.253850000000     0.031690000000     0.751030000000     1.37598    
V25      V      0.003710000000     0.503700000000     0.029290000000     1.36689    
V26      V      0.003560000000     0.003550000000     0.473540000000     1.36976    
V27      V      0.504460000000     0.504450000000     0.223560000000     1.38579    
V28      V      0.502950000000     0.002940000000     0.279270000000     1.37772    
V29      V      0.031700000000     0.753640000000     0.001600000000     1.36774    
V30      V      0.475780000000     0.753640000000     0.501240000000     1.38512    
V31      V      0.475770000000     0.753550000000     0.251810000000     1.38557    
V32      V      0.031700000000     0.753840000000     0.251030000000     1.37566    
V33      V      0.253640000000     0.975770000000     0.001240000000     1.37029    
V34      V      0.253640000000     0.531690000000     0.501600000000     1.38546    
V35      V      0.253560000000     0.975770000000     0.251810000000     1.3907     
V36      V      0.253850000000     0.531690000000     0.251030000000     1.38597    
V37      V      0.003710000000     0.503700000000     0.529290000000     1.37835    
V38      V      0.003560000000     0.003550000000     0.973540000000     1.37594    
V39      V      0.504460000000     0.504450000000     0.723560000000     1.38567    
V40      V      0.502950000000     0.002940000000     0.779270000000     1.37799    
V41      V      0.031700000000     0.753640000000     0.501600000000     1.37581    
V42      V      0.475780000000     0.753640000000     0.001240000000     1.36491    
V43      V      0.475770000000     0.753550000000     0.751810000000     1.38585    
V44      V      0.031700000000     0.753840000000     0.751030000000     1.37551    
V45      V      0.253640000000     0.975770000000     0.501240000000     1.39071    
V46      V      0.253640000000     0.531690000000     0.001600000000     1.37708    
V47      V      0.253550000000     0.975770000000     0.751810000000     1.39085    
V48      V      0.253850000000     0.531690000000     0.751030000000     1.38613    
V49      V      0.503710000000     0.003700000000     0.029290000000     1.36689    
V50      V      0.503550000000     0.503550000000     0.473540000000     1.38605    
V51      V      0.004460000000     0.004450000000     0.223560000000     1.37019    
V52      V      0.002950000000     0.502940000000     0.279270000000     1.37772    
V53      V      0.531700000000     0.253630000000     0.001600000000     1.37762    
V54      V      0.975780000000     0.253640000000     0.501240000000     1.39047    
V55      V      0.975770000000     0.253550000000     0.251810000000     1.39093    
V56      V      0.531700000000     0.253840000000     0.251030000000     1.38588    
V57      V      0.753640000000     0.475780000000     0.001240000000     1.36484    
V58      V      0.753640000000     0.031690000000     0.501600000000     1.37574    
V59      V      0.753550000000     0.475760000000     0.251810000000     1.38542    
V60      V      0.753850000000     0.031690000000     0.251030000000     1.37579    
V61      V      0.503710000000     0.003700000000     0.529290000000     1.37834    
V62      V      0.503560000000     0.503550000000     0.973540000000     1.3921     
V63      V      0.004460000000     0.004450000000     0.723560000000     1.37006    
V64      V      0.002950000000     0.502940000000     0.779270000000     1.37799    
V65      V      0.531700000000     0.253630000000     0.501600000000     1.38575    
V66      V      0.975780000000     0.253640000000     0.001240000000     1.37031    
V67      V      0.975770000000     0.253550000000     0.751810000000     1.39116    
V68      V      0.531700000000     0.253840000000     0.751030000000     1.38574    
V69      V      0.753640000000     0.475780000000     0.501240000000     1.3853     
V70      V      0.753640000000     0.031690000000     0.001600000000     1.36742    
V71      V      0.753550000000     0.475760000000     0.751810000000     1.3859     
V72      V      0.753850000000     0.031690000000     0.751030000000     1.37602    
V73      V      0.503710000000     0.503700000000     0.029290000000     1.37475    
V74      V      0.503560000000     0.003550000000     0.473540000000     1.37787    
V75      V      0.004460000000     0.504450000000     0.223560000000     1.37799    
V76      V      0.002950000000     0.002940000000     0.279270000000     1.36951    
V77      V      0.531700000000     0.753640000000     0.001600000000     1.37762    
V78      V      0.975780000000     0.753640000000     0.501240000000     1.39047    
V79      V      0.975770000000     0.753550000000     0.251810000000     1.391      
V80      V      0.531700000000     0.753840000000     0.251030000000     1.38558    
V81      V      0.753640000000     0.975770000000     0.001240000000     1.37028    
V82      V      0.753640000000     0.531690000000     0.501600000000     1.38547    
V83      V      0.753550000000     0.975770000000     0.251810000000     1.39102    
V84      V      0.753850000000     0.531690000000     0.251030000000     1.38598    
V85      V      0.503700000000     0.503700000000     0.529290000000     1.38594    
V86      V      0.503550000000     0.003550000000     0.973540000000     1.38399    
V87      V      0.004460000000     0.504450000000     0.723560000000     1.37787    
V88      V      0.002950000000     0.002940000000     0.779270000000     1.36979    
V89      V      0.531700000000     0.753640000000     0.501600000000     1.38575    
V90      V      0.975780000000     0.753640000000     0.001240000000     1.37029    
V91      V      0.975770000000     0.753550000000     0.751810000000     1.39123    
V92      V      0.531700000000     0.753840000000     0.751030000000     1.38538    
V93      V      0.753640000000     0.975770000000     0.501240000000     1.3907     
V94      V      0.753640000000     0.531690000000     0.001600000000     1.37709    
V95      V      0.753560000000     0.975770000000     0.751810000000     1.39085    
V96      V      0.753850000000     0.531690000000     0.751030000000     1.38608    


