data_structure

_audit_creation_method RASPA-1.0
_audit_creation_date 2023-5-22
_audit_author_name 'Poobodin Mano'

_cell_length_a    43.3138
_cell_length_b    43.3143
_cell_length_c    43.4105
_cell_angle_alpha 90
_cell_angle_beta  90
_cell_angle_gamma 90
_cell_volume      81442.7

_symmetry_cell_setting          triclinic
_symmetry_space_group_name_Hall 'P 1'
_symmetry_space_group_name_H-M  'P 1'
_symmetry_Int_Tables_number     1

_symmetry_equiv_pos_as_xyz 'x,y,z'

loop_
_atom_site_label
_atom_site_type_symbol
_atom_site_fract_x
_atom_site_fract_y
_atom_site_fract_z
_atom_site_charge
C1       C      0.377890000000     0.876680000000     0.058050000000     0.425574   
C2       C      0.378010000000     0.877500000000     0.441500000000     0.424998   
C3       C      0.378030000000     0.935510000000     0.500330000000     0.425357   
C4       C      0.377860000000     0.818810000000     0.499220000000     0.425685   
C5       C      0.377870000000     0.877060000000     0.308060000000     0.425283   
C6       C      0.378000000000     0.877130000000     0.191510000000     0.424951   
C7       C      0.378020000000     0.935510000000     0.250020000000     0.425437   
C8       C      0.377820000000     0.818820000000     0.249720000000     0.425722   
C9       C      0.377810000000     0.127940000000     0.444720000000     0.425248   
C10      C      0.377680000000     0.127400000000     0.061270000000     0.424961   
C11      C      0.377940000000     0.069250000000     0.002570000000     0.425127   
C12      C      0.377500000000     0.185950000000     0.003390000000     0.426315   
C13      C      0.377830000000     0.127880000000     0.194710000000     0.425363   
C14      C      0.377700000000     0.127460000000     0.311260000000     0.425171   
C15      C      0.377940000000     0.069250000000     0.252580000000     0.425325   
C16      C      0.377560000000     0.185940000000     0.253270000000     0.426112   
C17      C      0.876980000000     0.627170000000     0.059960000000     0.425133   
C18      C      0.877060000000     0.627040000000     0.443410000000     0.424937   
C19      C      0.935440000000     0.626880000000     0.501800000000     0.425339   
C20      C      0.818740000000     0.627380000000     0.501600000000     0.426025   
C21      C      0.876840000000     0.627150000000     0.309950000000     0.424725   
C22      C      0.877260000000     0.627020000000     0.193400000000     0.425041   
C23      C      0.935470000000     0.626910000000     0.251940000000     0.425905   
C24      C      0.818780000000     0.627270000000     0.251360000000     0.426073   
C25      C      0.127610000000     0.626880000000     0.444350000000     0.425049   
C26      C      0.127640000000     0.626740000000     0.060900000000     0.424851   
C27      C      0.069200000000     0.626740000000     0.002590000000     0.425146   
C28      C      0.185900000000     0.626900000000     0.002570000000     0.426314   
C29      C      0.127690000000     0.626900000000     0.194350000000     0.42512    
C30      C      0.127600000000     0.626770000000     0.310900000000     0.425085   
C31      C      0.069230000000     0.626770000000     0.252560000000     0.425511   
C32      C      0.185920000000     0.626930000000     0.252660000000     0.426115   
C33      C      0.626350000000     0.127890000000     0.059030000000     0.425093   
C34      C      0.627380000000     0.128020000000     0.442480000000     0.42495    
C35      C      0.626740000000     0.069530000000     0.500800000000     0.425488   
C36      C      0.627010000000     0.186230000000     0.500810000000     0.426054   
C37      C      0.627390000000     0.128280000000     0.309010000000     0.424942   
C38      C      0.626350000000     0.127640000000     0.192470000000     0.425127   
C39      C      0.626800000000     0.069550000000     0.251110000000     0.425626   
C40      C      0.626970000000     0.186240000000     0.250280000000     0.425737   
C41      C      0.626420000000     0.877360000000     0.443710000000     0.425319   
C42      C      0.627460000000     0.877360000000     0.060250000000     0.424896   
C43      C      0.626770000000     0.935780000000     0.001900000000     0.425262   
C44      C      0.627160000000     0.819080000000     0.001950000000     0.425972   
C45      C      0.627430000000     0.877280000000     0.193710000000     0.424964   
C46      C      0.626400000000     0.877460000000     0.310260000000     0.425392   
C47      C      0.626830000000     0.935790000000     0.251870000000     0.425518   
C48      C      0.627010000000     0.819090000000     0.252110000000     0.426086   
C49      C      0.377040000000     0.435500000000     0.501920000000     0.425171   
C50      C      0.377060000000     0.318820000000     0.503460000000     0.42572    
C51      C      0.435470000000     0.377100000000     0.001640000000     0.42326    
C52      C      0.318790000000     0.377070000000     0.003740000000     0.42394    
C53      C      0.376980000000     0.435510000000     0.252330000000     0.42524    
C54      C      0.377150000000     0.318820000000     0.253140000000     0.425605   
C55      C      0.435470000000     0.377190000000     0.251370000000     0.425099   
C56      C      0.318800000000     0.377000000000     0.253970000000     0.42557    
C57      C      0.377020000000     0.569240000000     0.000410000000     0.423154   
C58      C      0.377180000000     0.685920000000     0.999000000000     0.427251   
C59      C      0.435450000000     0.627620000000     0.498710000000     0.425045   
C60      C      0.318780000000     0.627620000000     0.500750000000     0.425394   
C61      C      0.377070000000     0.569250000000     0.251860000000     0.425073   
C62      C      0.377130000000     0.685930000000     0.250710000000     0.425291   
C63      C      0.435480000000     0.627680000000     0.250960000000     0.424901   
C64      C      0.318810000000     0.627590000000     0.251830000000     0.425227   
C65      C      0.569210000000     0.377260000000     0.499770000000     0.425133   
C66      C      0.685890000000     0.377640000000     0.498430000000     0.425213   
C67      C      0.627490000000     0.435800000000     0.998320000000     0.427059   
C68      C      0.627670000000     0.319130000000     0.999840000000     0.430477   
C69      C      0.569210000000     0.377420000000     0.249680000000     0.424877   
C70      C      0.685900000000     0.377430000000     0.249880000000     0.425352   
C71      C      0.627660000000     0.435800000000     0.249940000000     0.424891   
C72      C      0.627510000000     0.319130000000     0.249510000000     0.425283   
C73      C      0.627600000000     0.569540000000     0.498460000000     0.425251   
C74      C      0.627580000000     0.686210000000     0.500390000000     0.425983   
C75      C      0.569190000000     0.627930000000     0.998550000000     0.427166   
C76      C      0.685870000000     0.627920000000     0.000290000000     0.424053   
C77      C      0.627650000000     0.569540000000     0.250380000000     0.425319   
C78      C      0.627550000000     0.686210000000     0.251480000000     0.425157   
C79      C      0.569220000000     0.627910000000     0.250960000000     0.424958   
C80      C      0.685900000000     0.627890000000     0.250780000000     0.425414   
C81      C      0.127490000000     0.377810000000     0.062390000000     0.425022   
C82      C      0.127790000000     0.377930000000     0.445840000000     0.424878   
C83      C      0.069220000000     0.378140000000     0.503790000000     0.425305   
C84      C      0.185920000000     0.377560000000     0.504380000000     0.425996   
C85      C      0.127260000000     0.377810000000     0.312390000000     0.425238   
C86      C      0.128050000000     0.377940000000     0.195840000000     0.425201   
C87      C      0.069240000000     0.378200000000     0.253500000000     0.425305   
C88      C      0.185930000000     0.377500000000     0.254620000000     0.425975   
C89      C      0.877690000000     0.378860000000     0.441960000000     0.425126   
C90      C      0.876440000000     0.377830000000     0.058500000000     0.425031   
C91      C      0.935480000000     0.378370000000     0.001030000000     0.42557    
C92      C      0.818790000000     0.378310000000     0.999380000000     0.42793    
C93      C      0.877050000000     0.377800000000     0.191970000000     0.424848   
C94      C      0.877110000000     0.378830000000     0.308520000000     0.425424   
C95      C      0.935500000000     0.378420000000     0.250440000000     0.425477   
C96      C      0.818800000000     0.378150000000     0.250220000000     0.425989   
C97      C      0.876980000000     0.406950000000     0.359120000000    -0.00016169 
C98      C      0.877290000000     0.378990000000     0.342650000000    -0.106417   
C99      C      0.877860000000     0.351070000000     0.359160000000    -0.000390842
C100     C      0.878060000000     0.351080000000     0.391320000000    -0.000558157
C101     C      0.877710000000     0.379010000000     0.407820000000    -0.106096   
C102     C      0.877180000000     0.406960000000     0.391340000000    -0.00038683 
C103     C      0.876790000000     0.405590000000     0.109150000000    -0.00046558 
C104     C      0.876410000000     0.377670000000     0.092640000000    -0.106379   
C105     C      0.876180000000     0.349710000000     0.109120000000    -0.000402466
C106     C      0.876400000000     0.349700000000     0.141340000000    -0.000585575
C107     C      0.876840000000     0.377650000000     0.157820000000    -0.10605    
C108     C      0.877010000000     0.405580000000     0.141320000000    -0.000608373
C109     C      0.018560000000     0.406300000000     0.252230000000    -0.000356477
C110     C      0.035020000000     0.378320000000     0.252750000000    -0.105875   
C111     C      0.018450000000     0.350410000000     0.252390000000    -0.000313771
C112     C      0.986200000000     0.350460000000     0.251540000000    -0.000343766
C113     C      0.969720000000     0.378430000000     0.251040000000    -0.10598    
C114     C      0.986290000000     0.406350000000     0.251390000000    -0.000200504
C115     C      0.127750000000     0.405840000000     0.395190000000    -0.000381268
C116     C      0.127700000000     0.377930000000     0.411700000000    -0.106147   
C117     C      0.127450000000     0.349960000000     0.395240000000    -0.000520816
C118     C      0.127270000000     0.349910000000     0.363050000000    -0.000394474
C119     C      0.127320000000     0.377820000000     0.346530000000    -0.106252   
C120     C      0.127550000000     0.405790000000     0.362990000000    -0.000389806
C121     C      0.127620000000     0.349910000000     0.113050000000    -0.000504991
C122     C      0.127640000000     0.377820000000     0.096540000000    -0.106091   
C123     C      0.127880000000     0.405790000000     0.112990000000    -0.000446429
C124     C      0.128090000000     0.405850000000     0.145190000000    -0.000393333
C125     C      0.128030000000     0.377930000000     0.161700000000    -0.106275   
C126     C      0.127810000000     0.349960000000     0.145240000000    -0.000434789
C127     C      0.986170000000     0.350380000000     0.502380000000    -0.000397731
C128     C      0.969700000000     0.378350000000     0.001740000000    -0.10619    
C129     C      0.986270000000     0.406270000000     0.001890000000    -0.000372969
C130     C      0.018540000000     0.406210000000     0.002620000000    -0.000368427
C131     C      0.035000000000     0.378240000000     0.503230000000    -0.105991   
C132     C      0.018420000000     0.350330000000     0.503120000000    -0.000240534
C133     C      0.768420000000     0.398050000000     0.230740000000     0.00128018 
C134     C      0.784830000000     0.378030000000     0.250190000000    -0.106681   
C135     C      0.768550000000     0.357820000000     0.269560000000     0.0014024  
C136     C      0.736270000000     0.358000000000     0.269860000000     0.000840119
C137     C      0.719860000000     0.377620000000     0.249990000000    -0.106537   
C138     C      0.736150000000     0.397450000000     0.230250000000     0.00120475 
C139     C      0.627680000000     0.486620000000     0.222190000000    -0.000497164
C140     C      0.627690000000     0.470020000000     0.250040000000    -0.105972   
C141     C      0.627720000000     0.486450000000     0.277960000000    -0.00037115 
C142     C      0.627700000000     0.518710000000     0.278040000000    -0.000254618
C143     C      0.627680000000     0.535320000000     0.250200000000    -0.106177   
C144     C      0.627700000000     0.518900000000     0.222270000000    -0.000379104
C145     C      0.768720000000     0.358000000000     0.979410000000     0.00140671 
C146     C      0.784820000000     0.378300000000     0.998850000000    -0.105042   
C147     C      0.768220000000     0.398580000000     0.517870000000     0.00122007 
C148     C      0.735960000000     0.398070000000     0.517950000000     0.00131226 
C149     C      0.719850000000     0.378060000000     0.498230000000    -0.106478   
C150     C      0.736430000000     0.358260000000     0.978710000000     0.000813309
C151     C      0.627110000000     0.486530000000     0.025980000000    -0.0019924  
C152     C      0.627500000000     0.470010000000     0.998110000000    -0.10462    
C153     C      0.627930000000     0.486540000000     0.470220000000    -0.000253146
C154     C      0.627970000000     0.518850000000     0.470250000000    -0.000355766
C155     C      0.627580000000     0.535320000000     0.498170000000    -0.106095   
C156     C      0.627160000000     0.518750000000     0.026010000000    -0.00195366 
C157     C      0.486220000000     0.627790000000     0.278780000000    -0.000311405
C158     C      0.469700000000     0.627750000000     0.250880000000    -0.106006   
C159     C      0.486210000000     0.627790000000     0.223010000000    -0.000517052
C160     C      0.518490000000     0.627850000000     0.223050000000    -0.000345702
C161     C      0.535000000000     0.627880000000     0.250950000000    -0.106087   
C162     C      0.518480000000     0.627870000000     0.278810000000    -0.000327278
C163     C      0.486240000000     0.627330000000     0.026230000000    -0.00194099 
C164     C      0.469660000000     0.627690000000     0.498400000000    -0.106192   
C165     C      0.486130000000     0.628160000000     0.470480000000    -0.000316097
C166     C      0.518440000000     0.628250000000     0.470440000000    -0.000247352
C167     C      0.534980000000     0.627880000000     0.998320000000    -0.104645   
C168     C      0.518460000000     0.627420000000     0.026200000000    -0.00201996 
C169     C      0.268340000000     0.357180000000     0.234860000000     0.00149201 
C170     C      0.284860000000     0.376860000000     0.254560000000    -0.106687   
C171     C      0.268700000000     0.396660000000     0.274440000000     0.00140872 
C172     C      0.236410000000     0.397240000000     0.274120000000     0.00126763 
C173     C      0.219900000000     0.377230000000     0.254730000000    -0.106469   
C174     C      0.236080000000     0.356970000000     0.235350000000     0.00118587 
C175     C      0.485830000000     0.376860000000     0.222640000000    -0.00016452 
C176     C      0.469680000000     0.377240000000     0.250750000000    -0.106197   
C177     C      0.486580000000     0.377690000000     0.278390000000    -0.000405659
C178     C      0.518810000000     0.377760000000     0.277970000000    -0.000458018
C179     C      0.534990000000     0.377370000000     0.249890000000    -0.105978   
C180     C      0.518130000000     0.376920000000     0.222210000000    -0.000449813
C181     C      0.376920000000     0.486150000000     0.224280000000    -0.000298225
C182     C      0.376950000000     0.469720000000     0.252200000000    -0.106264   
C183     C      0.376990000000     0.486350000000     0.280040000000    -0.000241128
C184     C      0.377010000000     0.518620000000     0.279960000000    -0.000443821
C185     C      0.377010000000     0.535040000000     0.252030000000    -0.106144   
C186     C      0.376960000000     0.518410000000     0.224190000000    -0.000361084
C187     C      0.268680000000     0.396770000000     0.024130000000     0.00126048 
C188     C      0.284840000000     0.376990000000     0.004240000000    -0.108049   
C189     C      0.268330000000     0.357330000000     0.484510000000     0.00147053 
C190     C      0.236070000000     0.357110000000     0.485000000000     0.00117367 
C191     C      0.219880000000     0.377340000000     0.504420000000    -0.106573   
C192     C      0.236390000000     0.397340000000     0.023820000000     0.00168495 
C193     C      0.486600000000     0.377100000000     0.028750000000    -0.00110735 
C194     C      0.469680000000     0.377100000000     0.001100000000    -0.107073   
C195     C      0.485810000000     0.377130000000     0.472990000000    -0.000317481
C196     C      0.518080000000     0.377180000000     0.472550000000    -0.000492355
C197     C      0.534990000000     0.377180000000     0.500210000000    -0.106067   
C198     C      0.518860000000     0.377130000000     0.028310000000     0.00131356 
C199     C      0.377110000000     0.486560000000     0.029210000000    -0.000378542
C200     C      0.377000000000     0.469720000000     0.501510000000    -0.106092   
C201     C      0.376880000000     0.485920000000     0.473450000000    -0.000350655
C202     C      0.376880000000     0.518190000000     0.473100000000    -0.000352779
C203     C      0.376990000000     0.535030000000     0.000800000000    -0.107648   
C204     C      0.377090000000     0.518820000000     0.028860000000    -0.000283965
C205     C      0.607010000000     0.768790000000     0.232610000000     0.00143357 
C206     C      0.627070000000     0.785130000000     0.252080000000    -0.106844   
C207     C      0.647240000000     0.768780000000     0.271430000000     0.00147436 
C208     C      0.646980000000     0.736500000000     0.271690000000     0.000768232
C209     C      0.627340000000     0.720170000000     0.251790000000    -0.106393   
C210     C      0.607530000000     0.736530000000     0.232080000000     0.00115855 
C211     C      0.647390000000     0.769070000000     0.481980000000     0.00115196 
C212     C      0.627320000000     0.785120000000     0.001680000000    -0.10852    
C213     C      0.607390000000     0.768480000000     0.021030000000     0.00157726 
C214     C      0.607910000000     0.736200000000     0.021060000000     0.00144653 
C215     C      0.627560000000     0.720160000000     0.500940000000    -0.106736   
C216     C      0.647120000000     0.736810000000     0.481220000000     0.00149506 
C217     C      0.654180000000     0.877830000000     0.393060000000    -0.000551122
C218     C      0.626260000000     0.877370000000     0.409570000000    -0.106242   
C219     C      0.598300000000     0.876950000000     0.393100000000    -0.000329446
C220     C      0.598290000000     0.876980000000     0.360880000000    -0.00023646 
C221     C      0.626240000000     0.877440000000     0.344400000000    -0.106327   
C222     C      0.654170000000     0.877870000000     0.360890000000    -0.000484122
C223     C      0.655560000000     0.877000000000     0.110880000000    -0.000453226
C224     C      0.627610000000     0.877320000000     0.094400000000    -0.106074   
C225     C      0.599680000000     0.877600000000     0.110890000000    -0.000538463
C226     C      0.599670000000     0.877570000000     0.143060000000    -0.000481975
C227     C      0.627590000000     0.877260000000     0.159570000000    -0.106208   
C228     C      0.655550000000     0.876970000000     0.143100000000    -0.000412525
C229     C      0.606920000000     0.236750000000     0.269190000000     0.00137174 
C230     C      0.627010000000     0.220200000000     0.249940000000    -0.106637   
C231     C      0.647170000000     0.236350000000     0.230380000000     0.00135297 
C232     C      0.646890000000     0.268630000000     0.229750000000     0.000743785
C233     C      0.627230000000     0.285160000000     0.249460000000    -0.106301   
C234     C      0.607420000000     0.269020000000     0.269350000000     0.0011495  
C235     C      0.598840000000     0.018800000000     0.251440000000    -0.000205468
C236     C      0.626780000000     0.035330000000     0.251340000000    -0.106048   
C237     C      0.654730000000     0.018810000000     0.251450000000    -0.000338127
C238     C      0.654730000000     0.986540000000     0.251640000000    -0.000253448
C239     C      0.626800000000     0.970010000000     0.251730000000    -0.106037   
C240     C      0.598840000000     0.986530000000     0.251640000000    -0.000288224
C241     C      0.606960000000     0.236510000000     0.481290000000     0.00134254 
C242     C      0.627090000000     0.220200000000     0.500710000000    -0.106717   
C243     C      0.647370000000     0.236580000000     0.019930000000     0.000460247
C244     C      0.647150000000     0.268870000000     0.020100000000     0.00247711 
C245     C      0.627440000000     0.285160000000     0.000240000000    -0.111616   
C246     C      0.607520000000     0.268770000000     0.480670000000     0.00113743 
C247     C      0.599610000000     0.127990000000     0.359660000000    -0.000547743
C248     C      0.627540000000     0.128330000000     0.343160000000    -0.106107   
C249     C      0.655490000000     0.128600000000     0.359640000000    -0.000491141
C250     C      0.655490000000     0.128500000000     0.391860000000    -0.000406923
C251     C      0.627540000000     0.128140000000     0.408340000000    -0.106221   
C252     C      0.599610000000     0.127900000000     0.391830000000    -0.000515071
C253     C      0.654120000000     0.127220000000     0.141830000000    -0.000522643
C254     C      0.626190000000     0.127620000000     0.158330000000    -0.106174   
C255     C      0.598240000000     0.128100000000     0.141860000000    -0.000245503
C256     C      0.598230000000     0.128180000000     0.109640000000    -0.00035318 
C257     C      0.626190000000     0.127800000000     0.093170000000    -0.106201   
C258     C      0.654120000000     0.127310000000     0.109660000000    -0.000543822
C259     C      0.654650000000     0.018790000000     0.501180000000    -0.000333072
C260     C      0.626710000000     0.035310000000     0.501020000000    -0.106015   
C261     C      0.598760000000     0.018790000000     0.001180000000    -0.000435492
C262     C      0.598770000000     0.986510000000     0.001490000000    -0.000283813
C263     C      0.626720000000     0.970000000000     0.001660000000    -0.106224   
C264     C      0.654650000000     0.986530000000     0.501500000000    -0.000228497
C265     C      0.236250000000     0.647340000000     0.271750000000     0.00136738 
C266     C      0.219890000000     0.627010000000     0.252570000000    -0.106773   
C267     C      0.236210000000     0.606850000000     0.233200000000     0.00138232 
C268     C      0.268480000000     0.607420000000     0.232580000000     0.00108889 
C269     C      0.284840000000     0.627380000000     0.252130000000    -0.106364   
C270     C      0.268530000000     0.647130000000     0.271930000000     0.000767549
C271     C      0.236060000000     0.606790000000     0.482820000000     0.00136679 
C272     C      0.219870000000     0.626970000000     0.002280000000    -0.108875   
C273     C      0.236370000000     0.647330000000     0.021310000000     0.00168051 
C274     C      0.268650000000     0.647140000000     0.021240000000     0.000680951
C275     C      0.284820000000     0.627380000000     0.501340000000    -0.106531   
C276     C      0.268310000000     0.607370000000     0.481960000000     0.00114315 
C277     C      0.127650000000     0.598900000000     0.393740000000    -0.000463945
C278     C      0.127620000000     0.626870000000     0.410200000000    -0.106066   
C279     C      0.127590000000     0.654790000000     0.393700000000    -0.000549508
C280     C      0.127580000000     0.654740000000     0.361500000000    -0.000435092
C281     C      0.127610000000     0.626770000000     0.345040000000    -0.106221   
C282     C      0.127660000000     0.598850000000     0.361550000000    -0.000373322
C283     C      0.127650000000     0.654740000000     0.111490000000    -0.000551718
C284     C      0.127670000000     0.626760000000     0.095040000000    -0.106148   
C285     C      0.127730000000     0.598850000000     0.111560000000    -0.000404015
C286     C      0.127740000000     0.598900000000     0.143750000000    -0.000448801
C287     C      0.127710000000     0.626880000000     0.160210000000    -0.106215   
C288     C      0.127680000000     0.654790000000     0.143690000000    -0.000452335
C289     C      0.768660000000     0.647680000000     0.231740000000     0.00142434 
C290     C      0.784820000000     0.627380000000     0.251110000000    -0.106847   
C291     C      0.768290000000     0.607170000000     0.270270000000     0.00127982 
C292     C      0.736020000000     0.607700000000     0.270490000000     0.00122141 
C293     C      0.719860000000     0.627650000000     0.250760000000    -0.10656    
C294     C      0.736380000000     0.647440000000     0.231170000000     0.000736779
C295     C      0.986250000000     0.654770000000     0.252220000000    -0.000268924
C296     C      0.969690000000     0.626840000000     0.252120000000    -0.106177   
C297     C      0.986180000000     0.598880000000     0.252200000000    -0.000116959
C298     C      0.018460000000     0.598840000000     0.252370000000    -0.000297095
C299     C      0.035010000000     0.626770000000     0.252450000000    -0.105987   
C300     C      0.018510000000     0.654730000000     0.252370000000    -0.00032676 
C301     C      0.768710000000     0.647750000000     0.481810000000     0.00118846 
C302     C      0.784780000000     0.627560000000     0.501370000000    -0.106517   
C303     C      0.768160000000     0.607550000000     0.020670000000     0.00160169 
C304     C      0.735880000000     0.608110000000     0.020770000000     0.00142087 
C305     C      0.719820000000     0.627880000000     0.000780000000    -0.108089   
C306     C      0.736450000000     0.647520000000     0.481120000000     0.00141909 
C307     C      0.876760000000     0.599170000000     0.360560000000    -0.000472825
C308     C      0.876820000000     0.627140000000     0.344100000000    -0.105942   
C309     C      0.876950000000     0.655060000000     0.360610000000    -0.0006358  
C310     C      0.877030000000     0.655010000000     0.392800000000    -0.000475046
C311     C      0.876980000000     0.627040000000     0.409270000000    -0.106173   
C312     C      0.876820000000     0.599120000000     0.392760000000    -0.00034983 
C313     C      0.876990000000     0.599180000000     0.110550000000    -0.000384827
C314     C      0.877040000000     0.627150000000     0.094100000000    -0.106204   
C315     C      0.877180000000     0.655070000000     0.110620000000    -0.000516327
C316     C      0.877290000000     0.655010000000     0.142810000000    -0.000392105
C317     C      0.877230000000     0.627040000000     0.159260000000    -0.1062     
C318     C      0.877070000000     0.599120000000     0.142750000000    -0.000456758
C319     C      0.986150000000     0.598830000000     0.002100000000    -0.000405334
C320     C      0.969660000000     0.626800000000     0.501990000000    -0.105986   
C321     C      0.986220000000     0.654720000000     0.502110000000    -0.000266289
C322     C      0.018480000000     0.654690000000     0.502330000000    -0.000338956
C323     C      0.034980000000     0.626730000000     0.002440000000    -0.10611    
C324     C      0.018430000000     0.598800000000     0.002330000000    -0.000335717
C325     C      0.357170000000     0.236180000000     0.234010000000     0.00115439 
C326     C      0.377410000000     0.219910000000     0.253350000000    -0.106466   
C327     C      0.397490000000     0.236330000000     0.272740000000     0.00124525 
C328     C      0.396970000000     0.268610000000     0.273140000000     0.00145332 
C329     C      0.377150000000     0.284870000000     0.253360000000    -0.106684   
C330     C      0.357430000000     0.268440000000     0.233620000000     0.00146512 
C331     C      0.397360000000     0.236310000000     0.023040000000     0.00165633 
C332     C      0.377310000000     0.219910000000     0.003590000000    -0.108747   
C333     C      0.357040000000     0.236200000000     0.484310000000     0.0011481  
C334     C      0.357260000000     0.268470000000     0.484010000000     0.0014689  
C335     C      0.376970000000     0.284870000000     0.503780000000    -0.106746   
C336     C      0.396800000000     0.268590000000     0.023530000000     0.00128237 
C337     C      0.349840000000     0.127730000000     0.394110000000    -0.000472459
C338     C      0.377810000000     0.127900000000     0.410570000000    -0.106242   
C339     C      0.405720000000     0.127920000000     0.394060000000    -0.000376551
C340     C      0.405680000000     0.127740000000     0.361870000000    -0.000486823
C341     C      0.377710000000     0.127560000000     0.345400000000    -0.106226   
C342     C      0.349790000000     0.127570000000     0.361910000000    -0.00049575 
C343     C      0.349790000000     0.127490000000     0.111920000000    -0.000497766
C344     C      0.377700000000     0.127480000000     0.095410000000    -0.10613    
C345     C      0.405680000000     0.127650000000     0.111860000000    -0.000443984
C346     C      0.405730000000     0.127830000000     0.144050000000    -0.000291108
C347     C      0.377810000000     0.127820000000     0.160570000000    -0.106303   
C348     C      0.349840000000     0.127650000000     0.144120000000    -0.000381051
C349     C      0.397310000000     0.736280000000     0.269890000000     0.00119672 
C350     C      0.377360000000     0.719890000000     0.250350000000    -0.106556   
C351     C      0.357630000000     0.736180000000     0.230510000000     0.000822595
C352     C      0.357430000000     0.768460000000     0.230650000000     0.00121012 
C353     C      0.377740000000     0.784850000000     0.249840000000    -0.106591   
C354     C      0.397880000000     0.768540000000     0.269240000000     0.00131775 
C355     C      0.405980000000     0.986270000000     0.250580000000    -0.000271064
C356     C      0.378040000000     0.969730000000     0.250550000000    -0.105947   
C357     C      0.350090000000     0.986230000000     0.251230000000    -0.000349037
C358     C      0.350070000000     0.018490000000     0.251940000000    -0.000319636
C359     C      0.378000000000     0.035030000000     0.251990000000    -0.105935   
C360     C      0.405960000000     0.018540000000     0.251290000000    -0.000280095
C361     C      0.357410000000     0.768640000000     0.479690000000     0.00136635 
C362     C      0.377820000000     0.784850000000     0.498930000000    -0.106699   
C363     C      0.398150000000     0.768350000000     0.017970000000    -0.000245986
C364     C      0.397620000000     0.736090000000     0.018270000000    -0.000405169
C365     C      0.377540000000     0.719880000000     0.998710000000    -0.104917   
C366     C      0.357650000000     0.736360000000     0.479180000000     0.000717017
C367     C      0.350020000000     0.877460000000     0.390910000000    -0.00054443 
C368     C      0.378000000000     0.877480000000     0.407360000000    -0.106116   
C369     C      0.405910000000     0.877360000000     0.390850000000    -0.000361518
C370     C      0.405860000000     0.877210000000     0.358660000000    -0.000294492
C371     C      0.377890000000     0.877170000000     0.342200000000    -0.10624    
C372     C      0.349970000000     0.877290000000     0.358720000000    -0.000405975
C373     C      0.349980000000     0.876760000000     0.108710000000    -0.000492661
C374     C      0.377900000000     0.876660000000     0.092200000000    -0.106451   
C375     C      0.405870000000     0.876680000000     0.108660000000    -0.000399403
C376     C      0.405910000000     0.876830000000     0.140860000000    -0.000504345
C377     C      0.377990000000     0.876980000000     0.157370000000    -0.106213   
C378     C      0.350030000000     0.876930000000     0.140910000000    -0.000527693
C379     C      0.405980000000     0.986270000000     0.500850000000    -0.000319646
C380     C      0.378040000000     0.969730000000     0.500870000000    -0.105917   
C381     C      0.350090000000     0.986230000000     0.001510000000    -0.000702971
C382     C      0.350080000000     0.018490000000     0.002110000000    -0.000314369
C383     C      0.378010000000     0.035030000000     0.002080000000    -0.106209   
C384     C      0.405960000000     0.018540000000     0.501450000000    -0.000208032
C385     C      0.377890000000     0.876680000000     0.558050000000     0.425008   
C386     C      0.378010000000     0.877500000000     0.941500000000     0.425493   
C387     C      0.378030000000     0.935510000000     0.000330000000     0.423517   
C388     C      0.377860000000     0.818810000000     0.999220000000     0.427951   
C389     C      0.377870000000     0.877060000000     0.808060000000     0.425323   
C390     C      0.378000000000     0.877130000000     0.691510000000     0.424957   
C391     C      0.378020000000     0.935510000000     0.750020000000     0.425427   
C392     C      0.377820000000     0.818820000000     0.749720000000     0.425692   
C393     C      0.377810000000     0.127940000000     0.944720000000     0.424928   
C394     C      0.377680000000     0.127400000000     0.561270000000     0.425115   
C395     C      0.377940000000     0.069250000000     0.502570000000     0.425342   
C396     C      0.377500000000     0.185950000000     0.503390000000     0.426023   
C397     C      0.377830000000     0.127880000000     0.694710000000     0.425356   
C398     C      0.377700000000     0.127460000000     0.811260000000     0.425206   
C399     C      0.377940000000     0.069250000000     0.752580000000     0.425333   
C400     C      0.377560000000     0.185940000000     0.753270000000     0.426122   
C401     C      0.876980000000     0.627170000000     0.559960000000     0.42524    
C402     C      0.877060000000     0.627040000000     0.943410000000     0.424605   
C403     C      0.935440000000     0.626880000000     0.001800000000     0.425088   
C404     C      0.818740000000     0.627380000000     0.001600000000     0.426297   
C405     C      0.876840000000     0.627150000000     0.809950000000     0.424759   
C406     C      0.877260000000     0.627020000000     0.693400000000     0.425035   
C407     C      0.935470000000     0.626910000000     0.751940000000     0.425909   
C408     C      0.818780000000     0.627270000000     0.751360000000     0.426073   
C409     C      0.127610000000     0.626880000000     0.944350000000     0.424877   
C410     C      0.127640000000     0.626740000000     0.560900000000     0.425016   
C411     C      0.069200000000     0.626740000000     0.502590000000     0.4254     
C412     C      0.185900000000     0.626900000000     0.502570000000     0.426039   
C413     C      0.127690000000     0.626900000000     0.694350000000     0.425159   
C414     C      0.127600000000     0.626770000000     0.810900000000     0.425097   
C415     C      0.069230000000     0.626770000000     0.752560000000     0.425505   
C416     C      0.185920000000     0.626930000000     0.752660000000     0.426089   
C417     C      0.626350000000     0.127890000000     0.559030000000     0.425353   
C418     C      0.627380000000     0.128020000000     0.942480000000     0.42458    
C419     C      0.626740000000     0.069530000000     0.000800000000     0.425126   
C420     C      0.627010000000     0.186230000000     0.000810000000     0.423604   
C421     C      0.627390000000     0.128280000000     0.809010000000     0.424975   
C422     C      0.626350000000     0.127640000000     0.692470000000     0.425124   
C423     C      0.626800000000     0.069550000000     0.751110000000     0.42563    
C424     C      0.626970000000     0.186240000000     0.750280000000     0.425754   
C425     C      0.626420000000     0.877360000000     0.943710000000     0.425017   
C426     C      0.627460000000     0.877360000000     0.560250000000     0.425093   
C427     C      0.626770000000     0.935780000000     0.501900000000     0.42548    
C428     C      0.627160000000     0.819080000000     0.501950000000     0.425663   
C429     C      0.627430000000     0.877280000000     0.693710000000     0.424959   
C430     C      0.626400000000     0.877460000000     0.810260000000     0.425424   
C431     C      0.626830000000     0.935790000000     0.751870000000     0.425522   
C432     C      0.627010000000     0.819090000000     0.752110000000     0.426116   
C433     C      0.377040000000     0.435500000000     0.001920000000     0.423408   
C434     C      0.377060000000     0.318820000000     0.003460000000     0.42389    
C435     C      0.435470000000     0.377100000000     0.501640000000     0.425235   
C436     C      0.318790000000     0.377070000000     0.503740000000     0.425772   
C437     C      0.376980000000     0.435510000000     0.752330000000     0.42524    
C438     C      0.377150000000     0.318820000000     0.753140000000     0.425607   
C439     C      0.435470000000     0.377190000000     0.751380000000     0.425101   
C440     C      0.318800000000     0.377000000000     0.753970000000     0.425931   
C441     C      0.377020000000     0.569240000000     0.500410000000     0.424917   
C442     C      0.377180000000     0.685920000000     0.499000000000     0.425374   
C443     C      0.435450000000     0.627620000000     0.998710000000     0.426926   
C444     C      0.318780000000     0.627620000000     0.000750000000     0.423585   
C445     C      0.377070000000     0.569250000000     0.751860000000     0.425079   
C446     C      0.377130000000     0.685930000000     0.750710000000     0.425653   
C447     C      0.435480000000     0.627680000000     0.750960000000     0.4249     
C448     C      0.318810000000     0.627590000000     0.751830000000     0.425585   
C449     C      0.569210000000     0.377260000000     0.999760000000     0.430204   
C450     C      0.685890000000     0.377640000000     0.998430000000     0.427135   
C451     C      0.627490000000     0.435800000000     0.498310000000     0.425162   
C452     C      0.627670000000     0.319130000000     0.499840000000     0.425301   
C453     C      0.569210000000     0.377420000000     0.749680000000     0.424871   
C454     C      0.685900000000     0.377430000000     0.749890000000     0.425337   
C455     C      0.627660000000     0.435800000000     0.749940000000     0.424883   
C456     C      0.627510000000     0.319130000000     0.749510000000     0.425272   
C457     C      0.627600000000     0.569540000000     0.998460000000     0.427163   
C458     C      0.627580000000     0.686210000000     0.000390000000     0.424176   
C459     C      0.569190000000     0.627930000000     0.498550000000     0.425305   
C460     C      0.685870000000     0.627920000000     0.500290000000     0.425863   
C461     C      0.627650000000     0.569540000000     0.750380000000     0.425277   
C462     C      0.627550000000     0.686210000000     0.751480000000     0.425102   
C463     C      0.569220000000     0.627910000000     0.750960000000     0.425254   
C464     C      0.685900000000     0.627890000000     0.750780000000     0.425364   
C465     C      0.127490000000     0.377810000000     0.562390000000     0.425178   
C466     C      0.127790000000     0.377930000000     0.945840000000     0.424559   
C467     C      0.069220000000     0.378140000000     0.003790000000     0.425051   
C468     C      0.185920000000     0.377560000000     0.004380000000     0.426298   
C469     C      0.127260000000     0.377810000000     0.812390000000     0.425318   
C470     C      0.128050000000     0.377940000000     0.695840000000     0.425148   
C471     C      0.069240000000     0.378200000000     0.753500000000     0.425313   
C472     C      0.185930000000     0.377500000000     0.754630000000     0.42595    
C473     C      0.877690000000     0.378860000000     0.941950000000     0.424953   
C474     C      0.876440000000     0.377830000000     0.558500000000     0.424837   
C475     C      0.935480000000     0.378370000000     0.501030000000     0.425414   
C476     C      0.818790000000     0.378310000000     0.499380000000     0.426006   
C477     C      0.877050000000     0.377800000000     0.691970000000     0.42486    
C478     C      0.877110000000     0.378830000000     0.808520000000     0.425339   
C479     C      0.935500000000     0.378420000000     0.750440000000     0.425476   
C480     C      0.818800000000     0.378150000000     0.750220000000     0.426002   
C481     C      0.876980000000     0.406950000000     0.859120000000    -0.000113105
C482     C      0.877290000000     0.378990000000     0.842660000000    -0.106274   
C483     C      0.877860000000     0.351070000000     0.859160000000    -0.000364966
C484     C      0.878060000000     0.351080000000     0.891320000000    -0.000504876
C485     C      0.877710000000     0.379010000000     0.907810000000    -0.105882   
C486     C      0.877180000000     0.406960000000     0.891340000000    -0.000359852
C487     C      0.876790000000     0.405590000000     0.609150000000    -0.000498257
C488     C      0.876410000000     0.377670000000     0.592640000000    -0.106209   
C489     C      0.876180000000     0.349710000000     0.609120000000    -0.000447253
C490     C      0.876400000000     0.349700000000     0.641340000000    -0.000512784
C491     C      0.876840000000     0.377650000000     0.657820000000    -0.106059   
C492     C      0.877010000000     0.405580000000     0.641320000000    -0.000572306
C493     C      0.018560000000     0.406300000000     0.752230000000    -0.00033388 
C494     C      0.035020000000     0.378320000000     0.752760000000    -0.105854   
C495     C      0.018450000000     0.350410000000     0.752390000000    -0.000283047
C496     C      0.986200000000     0.350460000000     0.751530000000    -0.00032524 
C497     C      0.969720000000     0.378430000000     0.751040000000    -0.105951   
C498     C      0.986290000000     0.406350000000     0.751390000000    -0.000190024
C499     C      0.127750000000     0.405840000000     0.895190000000    -0.000435557
C500     C      0.127700000000     0.377930000000     0.911700000000    -0.105713   
C501     C      0.127450000000     0.349960000000     0.895240000000    -0.000575731
C502     C      0.127270000000     0.349910000000     0.863050000000    -0.000237289
C503     C      0.127320000000     0.377820000000     0.846530000000    -0.106276   
C504     C      0.127550000000     0.405790000000     0.862990000000    -0.000230866
C505     C      0.127620000000     0.349910000000     0.613050000000    -0.000465592
C506     C      0.127640000000     0.377820000000     0.596540000000    -0.106128   
C507     C      0.127880000000     0.405790000000     0.612990000000    -0.000415388
C508     C      0.128090000000     0.405850000000     0.645190000000    -0.000421525
C509     C      0.128030000000     0.377930000000     0.661700000000    -0.106241   
C510     C      0.127810000000     0.349960000000     0.645240000000    -0.000440977
C511     C      0.986170000000     0.350380000000     0.002380000000    -0.000416437
C512     C      0.969700000000     0.378350000000     0.501740000000    -0.105894   
C513     C      0.986270000000     0.406270000000     0.501890000000    -0.00032891 
C514     C      0.018540000000     0.406210000000     0.502620000000    -0.000210482
C515     C      0.035000000000     0.378240000000     0.003230000000    -0.106078   
C516     C      0.018420000000     0.350330000000     0.003120000000    -0.000427758
C517     C      0.768420000000     0.398050000000     0.730740000000     0.00132146 
C518     C      0.784830000000     0.378030000000     0.750190000000    -0.106677   
C519     C      0.768550000000     0.357820000000     0.769560000000     0.00140186 
C520     C      0.736270000000     0.358000000000     0.769860000000     0.000840261
C521     C      0.719860000000     0.377620000000     0.749990000000    -0.106497   
C522     C      0.736150000000     0.397450000000     0.730240000000     0.00115473 
C523     C      0.627680000000     0.486620000000     0.722190000000    -0.000502264
C524     C      0.627690000000     0.470020000000     0.750040000000    -0.105965   
C525     C      0.627720000000     0.486450000000     0.777960000000    -0.000386764
C526     C      0.627700000000     0.518710000000     0.778040000000    -0.000217897
C527     C      0.627680000000     0.535320000000     0.750200000000    -0.106173   
C528     C      0.627700000000     0.518900000000     0.722270000000    -0.000381427
C529     C      0.768720000000     0.358000000000     0.479410000000     0.00138091 
C530     C      0.784820000000     0.378300000000     0.498850000000    -0.106622   
C531     C      0.768220000000     0.398580000000     0.017870000000    -0.000404661
C532     C      0.735960000000     0.398070000000     0.017950000000    -0.000309692
C533     C      0.719850000000     0.378060000000     0.998230000000    -0.10491    
C534     C      0.736430000000     0.358260000000     0.478710000000     0.000786649
C535     C      0.627110000000     0.486530000000     0.525980000000    -0.000300289
C536     C      0.627500000000     0.470010000000     0.498110000000    -0.10627    
C537     C      0.627930000000     0.486540000000     0.970220000000    -0.000372058
C538     C      0.627970000000     0.518850000000     0.970260000000    -0.000229565
C539     C      0.627580000000     0.535320000000     0.998170000000    -0.104596   
C540     C      0.627160000000     0.518750000000     0.526020000000    -0.000485588
C541     C      0.486220000000     0.627790000000     0.778780000000    -0.000337816
C542     C      0.469700000000     0.627750000000     0.750880000000    -0.105988   
C543     C      0.486210000000     0.627790000000     0.723010000000    -0.000547618
C544     C      0.518490000000     0.627850000000     0.723050000000    -0.000288389
C545     C      0.535000000000     0.627880000000     0.750950000000    -0.10621    
C546     C      0.518480000000     0.627870000000     0.778810000000    -0.000269828
C547     C      0.486240000000     0.627330000000     0.526230000000    -0.00036391 
C548     C      0.469660000000     0.627690000000     0.998400000000    -0.104592   
C549     C      0.486130000000     0.628160000000     0.970480000000    -0.000322291
C550     C      0.518440000000     0.628250000000     0.970440000000    -0.00026815 
C551     C      0.534980000000     0.627880000000     0.498320000000    -0.106273   
C552     C      0.518460000000     0.627420000000     0.526200000000    -0.000370278
C553     C      0.268340000000     0.357180000000     0.734860000000     0.00161105 
C554     C      0.284860000000     0.376860000000     0.754560000000    -0.106853   
C555     C      0.268700000000     0.396660000000     0.774440000000     0.00151145 
C556     C      0.236410000000     0.397240000000     0.774120000000     0.00120728 
C557     C      0.219900000000     0.377230000000     0.754730000000    -0.106387   
C558     C      0.236080000000     0.356970000000     0.735340000000     0.00109008 
C559     C      0.485830000000     0.376860000000     0.722640000000    -0.00015705 
C560     C      0.469680000000     0.377240000000     0.750750000000    -0.106197   
C561     C      0.486580000000     0.377690000000     0.778390000000    -0.000414171
C562     C      0.518810000000     0.377760000000     0.777970000000    -0.0004529  
C563     C      0.534990000000     0.377370000000     0.749890000000    -0.105977   
C564     C      0.518130000000     0.376920000000     0.722210000000    -0.000456602
C565     C      0.376920000000     0.486150000000     0.724280000000    -0.000301643
C566     C      0.376950000000     0.469720000000     0.752200000000    -0.106265   
C567     C      0.376990000000     0.486350000000     0.780040000000    -0.000239947
C568     C      0.377010000000     0.518620000000     0.779960000000    -0.000440216
C569     C      0.377010000000     0.535040000000     0.752030000000    -0.106149   
C570     C      0.376960000000     0.518410000000     0.724190000000    -0.000362562
C571     C      0.268680000000     0.396770000000     0.524130000000     0.0014147  
C572     C      0.284840000000     0.376990000000     0.504240000000    -0.10671    
C573     C      0.268330000000     0.357330000000     0.984510000000     0.00295976 
C574     C      0.236070000000     0.357110000000     0.985000000000     0.00327665 
C575     C      0.219880000000     0.377340000000     0.004420000000    -0.108731   
C576     C      0.236390000000     0.397340000000     0.523820000000     0.00130294 
C577     C      0.486600000000     0.377100000000     0.528750000000    -0.000308794
C578     C      0.469680000000     0.377100000000     0.501100000000    -0.106219   
C579     C      0.485810000000     0.377130000000     0.972990000000     0.000488377
C580     C      0.518080000000     0.377180000000     0.972550000000     0.00270565 
C581     C      0.534990000000     0.377180000000     0.000210000000    -0.111168   
C582     C      0.518860000000     0.377130000000     0.528310000000    -0.00031514 
C583     C      0.377110000000     0.486560000000     0.529210000000    -0.000417469
C584     C      0.377000000000     0.469720000000     0.001510000000    -0.107551   
C585     C      0.376880000000     0.485920000000     0.973450000000     0.00128482 
C586     C      0.376880000000     0.518190000000     0.973100000000     0.00128197 
C587     C      0.376990000000     0.535030000000     0.500800000000    -0.10614    
C588     C      0.377090000000     0.518820000000     0.528860000000    -0.000329456
C589     C      0.607010000000     0.768790000000     0.732620000000     0.00151572 
C590     C      0.627070000000     0.785130000000     0.752080000000    -0.10685    
C591     C      0.647240000000     0.768780000000     0.771440000000     0.00145035 
C592     C      0.646980000000     0.736500000000     0.771690000000     0.000788553
C593     C      0.627340000000     0.720170000000     0.751790000000    -0.106348   
C594     C      0.607530000000     0.736530000000     0.732080000000     0.0010973  
C595     C      0.647390000000     0.769070000000     0.981980000000     0.00323402 
C596     C      0.627320000000     0.785120000000     0.501680000000    -0.106348   
C597     C      0.607390000000     0.768480000000     0.521040000000     0.00117484 
C598     C      0.607910000000     0.736200000000     0.521070000000     0.00158423 
C599     C      0.627560000000     0.720160000000     0.000940000000    -0.108122   
C600     C      0.647120000000     0.736810000000     0.981220000000     0.00298176 
C601     C      0.654180000000     0.877830000000     0.893060000000    -0.000595179
C602     C      0.626260000000     0.877370000000     0.909570000000    -0.105829   
C603     C      0.598300000000     0.876950000000     0.893100000000    -0.000376681
C604     C      0.598290000000     0.876980000000     0.860880000000    -9.6521e-05 
C605     C      0.626240000000     0.877440000000     0.844400000000    -0.106335   
C606     C      0.654170000000     0.877870000000     0.860900000000    -0.000341849
C607     C      0.655560000000     0.877000000000     0.610880000000    -0.000415575
C608     C      0.627610000000     0.877320000000     0.594400000000    -0.106105   
C609     C      0.599680000000     0.877600000000     0.610890000000    -0.000514579
C610     C      0.599670000000     0.877570000000     0.643060000000    -0.000485609
C611     C      0.627590000000     0.877260000000     0.659570000000    -0.106195   
C612     C      0.655550000000     0.876970000000     0.643100000000    -0.000409906
C613     C      0.606920000000     0.236750000000     0.769190000000     0.00139936 
C614     C      0.627010000000     0.220200000000     0.749940000000    -0.106664   
C615     C      0.647170000000     0.236350000000     0.730390000000     0.00143454 
C616     C      0.646890000000     0.268630000000     0.729750000000     0.000709003
C617     C      0.627230000000     0.285160000000     0.749460000000    -0.106273   
C618     C      0.607420000000     0.269020000000     0.769350000000     0.00114122 
C619     C      0.598840000000     0.018800000000     0.751440000000    -0.000178896
C620     C      0.626780000000     0.035330000000     0.751340000000    -0.106026   
C621     C      0.654730000000     0.018810000000     0.751450000000    -0.000303368
C622     C      0.654730000000     0.986540000000     0.751640000000    -0.000238119
C623     C      0.626800000000     0.970010000000     0.751730000000    -0.106006   
C624     C      0.598840000000     0.986530000000     0.751640000000    -0.000281086
C625     C      0.606960000000     0.236510000000     0.981290000000     0.00204284 
C626     C      0.627090000000     0.220200000000     0.000710000000    -0.107387   
C627     C      0.647370000000     0.236580000000     0.519930000000     0.00139634 
C628     C      0.647150000000     0.268870000000     0.520100000000     0.00077453 
C629     C      0.627440000000     0.285160000000     0.500240000000    -0.106368   
C630     C      0.607520000000     0.268770000000     0.980670000000     0.00451846 
C631     C      0.599610000000     0.127990000000     0.859660000000    -0.000395076
C632     C      0.627540000000     0.128330000000     0.843160000000    -0.106126   
C633     C      0.655490000000     0.128600000000     0.859640000000    -0.000342507
C634     C      0.655490000000     0.128500000000     0.891860000000    -0.000455163
C635     C      0.627540000000     0.128140000000     0.908340000000    -0.105783   
C636     C      0.599610000000     0.127900000000     0.891830000000    -0.000595047
C637     C      0.654120000000     0.127220000000     0.641830000000    -0.000520627
C638     C      0.626190000000     0.127620000000     0.658330000000    -0.106153   
C639     C      0.598240000000     0.128100000000     0.641860000000    -0.000259498
C640     C      0.598230000000     0.128180000000     0.609640000000    -0.000302442
C641     C      0.626190000000     0.127800000000     0.593170000000    -0.106254   
C642     C      0.654120000000     0.127310000000     0.609660000000    -0.000500608
C643     C      0.654650000000     0.018790000000     0.001180000000    -0.000489241
C644     C      0.626710000000     0.035310000000     0.001020000000    -0.106083   
C645     C      0.598760000000     0.018790000000     0.501180000000    -0.000275118
C646     C      0.598770000000     0.986510000000     0.501490000000    -0.000199058
C647     C      0.626720000000     0.970000000000     0.501660000000    -0.106074   
C648     C      0.654650000000     0.986530000000     0.001500000000    -0.00031782 
C649     C      0.236250000000     0.647340000000     0.771750000000     0.00133546 
C650     C      0.219890000000     0.627010000000     0.752570000000    -0.106725   
C651     C      0.236210000000     0.606850000000     0.733200000000     0.00134367 
C652     C      0.268480000000     0.607420000000     0.732580000000     0.00116771 
C653     C      0.284840000000     0.627380000000     0.752130000000    -0.106515   
C654     C      0.268530000000     0.647130000000     0.771930000000     0.000856704
C655     C      0.236060000000     0.606790000000     0.982820000000     0.00345465 
C656     C      0.219870000000     0.626970000000     0.502280000000    -0.106735   
C657     C      0.236370000000     0.647330000000     0.521310000000     0.00132084 
C658     C      0.268650000000     0.647140000000     0.521240000000     0.000842659
C659     C      0.284820000000     0.627380000000     0.001340000000    -0.107906   
C660     C      0.268310000000     0.607370000000     0.981960000000     0.00264714 
C661     C      0.127650000000     0.598900000000     0.893740000000    -0.000457218
C662     C      0.127620000000     0.626870000000     0.910210000000    -0.105778   
C663     C      0.127590000000     0.654790000000     0.893700000000    -0.000527305
C664     C      0.127580000000     0.654740000000     0.861500000000    -0.000320419
C665     C      0.127610000000     0.626770000000     0.845040000000    -0.1062     
C666     C      0.127660000000     0.598850000000     0.861550000000    -0.000261427
C667     C      0.127650000000     0.654740000000     0.611490000000    -0.000520305
C668     C      0.127670000000     0.626760000000     0.595040000000    -0.106188   
C669     C      0.127730000000     0.598850000000     0.611560000000    -0.000379177
C670     C      0.127740000000     0.598900000000     0.643750000000    -0.000456149
C671     C      0.127710000000     0.626880000000     0.660210000000    -0.106205   
C672     C      0.127680000000     0.654790000000     0.643690000000    -0.000446238
C673     C      0.768660000000     0.647680000000     0.731740000000     0.00140812 
C674     C      0.784820000000     0.627380000000     0.751120000000    -0.106837   
C675     C      0.768290000000     0.607170000000     0.770270000000     0.00132003 
C676     C      0.736020000000     0.607700000000     0.770490000000     0.00121136 
C677     C      0.719860000000     0.627650000000     0.750760000000    -0.10653    
C678     C      0.736380000000     0.647440000000     0.731170000000     0.000743939
C679     C      0.986250000000     0.654770000000     0.752220000000    -0.000247151
C680     C      0.969690000000     0.626840000000     0.752120000000    -0.106149   
C681     C      0.986180000000     0.598880000000     0.752200000000    -0.000103973
C682     C      0.018460000000     0.598840000000     0.752370000000    -0.000276978
C683     C      0.035010000000     0.626770000000     0.752450000000    -0.105959   
C684     C      0.018510000000     0.654730000000     0.752370000000    -0.00029964 
C685     C      0.768710000000     0.647750000000     0.981810000000     0.00326046 
C686     C      0.784780000000     0.627560000000     0.001370000000    -0.108649   
C687     C      0.768160000000     0.607550000000     0.520670000000     0.00123576 
C688     C      0.735880000000     0.608110000000     0.520770000000     0.00157546 
C689     C      0.719820000000     0.627880000000     0.500780000000    -0.106719   
C690     C      0.736450000000     0.647520000000     0.981120000000     0.00291103 
C691     C      0.876760000000     0.599170000000     0.860560000000    -0.00032188 
C692     C      0.876820000000     0.627140000000     0.844100000000    -0.105953   
C693     C      0.876950000000     0.655060000000     0.860610000000    -0.000482411
C694     C      0.877030000000     0.655010000000     0.892800000000    -0.000529318
C695     C      0.876980000000     0.627040000000     0.909270000000    -0.105738   
C696     C      0.876820000000     0.599120000000     0.892760000000    -0.000402238
C697     C      0.876990000000     0.599180000000     0.610550000000    -0.000364873
C698     C      0.877040000000     0.627150000000     0.594100000000    -0.106238   
C699     C      0.877180000000     0.655070000000     0.610620000000    -0.00049029 
C700     C      0.877290000000     0.655010000000     0.642810000000    -0.000389531
C701     C      0.877230000000     0.627040000000     0.659260000000    -0.10619    
C702     C      0.877070000000     0.599120000000     0.642750000000    -0.000466057
C703     C      0.986150000000     0.598830000000     0.502100000000    -0.000299232
C704     C      0.969660000000     0.626800000000     0.001990000000    -0.106104   
C705     C      0.986220000000     0.654720000000     0.002110000000    -0.000379313
C706     C      0.018480000000     0.654690000000     0.002330000000    -0.000464344
C707     C      0.034980000000     0.626730000000     0.502440000000    -0.105997   
C708     C      0.018430000000     0.598800000000     0.502330000000    -0.000217133
C709     C      0.357170000000     0.236180000000     0.734010000000     0.00115995 
C710     C      0.377410000000     0.219910000000     0.753350000000    -0.106455   
C711     C      0.397490000000     0.236330000000     0.772740000000     0.00125672 
C712     C      0.396970000000     0.268610000000     0.773140000000     0.00146333 
C713     C      0.377150000000     0.284870000000     0.753360000000    -0.106678   
C714     C      0.357430000000     0.268440000000     0.733620000000     0.00147295 
C715     C      0.397360000000     0.236310000000     0.523040000000     0.00127852 
C716     C      0.377310000000     0.219910000000     0.503590000000    -0.106588   
C717     C      0.357040000000     0.236200000000     0.984310000000     0.00324599 
C718     C      0.357260000000     0.268470000000     0.984010000000     0.00295807 
C719     C      0.376970000000     0.284870000000     0.003780000000    -0.108089   
C720     C      0.396800000000     0.268590000000     0.523530000000     0.00143999 
C721     C      0.349840000000     0.127730000000     0.894110000000    -0.000523344
C722     C      0.377810000000     0.127900000000     0.910570000000    -0.105816   
C723     C      0.405720000000     0.127920000000     0.894060000000    -0.000428029
C724     C      0.405680000000     0.127740000000     0.861870000000    -0.000341169
C725     C      0.377710000000     0.127560000000     0.845400000000    -0.106234   
C726     C      0.349790000000     0.127570000000     0.861910000000    -0.000345842
C727     C      0.349790000000     0.127490000000     0.611920000000    -0.000464219
C728     C      0.377700000000     0.127480000000     0.595410000000    -0.10616    
C729     C      0.405680000000     0.127650000000     0.611860000000    -0.00042059 
C730     C      0.405730000000     0.127830000000     0.644050000000    -0.000295436
C731     C      0.377810000000     0.127820000000     0.660570000000    -0.106292   
C732     C      0.349840000000     0.127650000000     0.644120000000    -0.000376983
C733     C      0.397310000000     0.736280000000     0.769890000000     0.00129506 
C734     C      0.377360000000     0.719890000000     0.750350000000    -0.106714   
C735     C      0.357630000000     0.736180000000     0.730510000000     0.000913193
C736     C      0.357430000000     0.768460000000     0.730650000000     0.00117114 
C737     C      0.377740000000     0.784850000000     0.749840000000    -0.10653    
C738     C      0.397880000000     0.768540000000     0.769240000000     0.00124921 
C739     C      0.405980000000     0.986270000000     0.750580000000    -0.000267634
C740     C      0.378040000000     0.969730000000     0.750550000000    -0.105912   
C741     C      0.350090000000     0.986230000000     0.751230000000    -0.000336109
C742     C      0.350070000000     0.018490000000     0.751940000000    -0.000283232
C743     C      0.378000000000     0.035030000000     0.751990000000    -0.105915   
C744     C      0.405960000000     0.018540000000     0.751290000000    -0.000251489
C745     C      0.357410000000     0.768640000000     0.979680000000     0.00140296 
C746     C      0.377820000000     0.784850000000     0.998920000000    -0.10524    
C747     C      0.398150000000     0.768350000000     0.517970000000     0.00132539 
C748     C      0.397620000000     0.736090000000     0.518270000000     0.00128362 
C749     C      0.377540000000     0.719880000000     0.498720000000    -0.106524   
C750     C      0.357650000000     0.736360000000     0.979180000000     0.000762845
C751     C      0.350020000000     0.877460000000     0.890910000000    -0.000392361
C752     C      0.378000000000     0.877480000000     0.907370000000    -0.106216   
C753     C      0.405910000000     0.877360000000     0.890850000000    -0.000210681
C754     C      0.405860000000     0.877210000000     0.858660000000    -0.000293921
C755     C      0.377890000000     0.877170000000     0.842200000000    -0.106166   
C756     C      0.349970000000     0.877290000000     0.858720000000    -0.000399708
C757     C      0.349980000000     0.876760000000     0.608710000000    -0.000597399
C758     C      0.377900000000     0.876660000000     0.592200000000    -0.106098   
C759     C      0.405870000000     0.876680000000     0.608660000000    -0.000518175
C760     C      0.405910000000     0.876830000000     0.640860000000    -0.000407406
C761     C      0.377990000000     0.876980000000     0.657370000000    -0.10625    
C762     C      0.350030000000     0.876930000000     0.640900000000    -0.000420968
C763     C      0.405980000000     0.986270000000     0.000850000000    -0.000748438
C764     C      0.378040000000     0.969730000000     0.000870000000    -0.105612   
C765     C      0.350090000000     0.986230000000     0.501510000000    -0.000369729
C766     C      0.350080000000     0.018490000000     0.502110000000    -0.000279052
C767     C      0.378010000000     0.035030000000     0.502080000000    -0.105992   
C768     C      0.405960000000     0.018540000000     0.001450000000    -0.000215491
H1       H      0.876560000000     0.428890000000     0.347160000000     0.0386098  
H2       H      0.878130000000     0.329090000000     0.347260000000     0.0384174  
H3       H      0.878460000000     0.329100000000     0.403230000000     0.0384669  
H4       H      0.876890000000     0.428900000000     0.403300000000     0.0387431  
H5       H      0.876980000000     0.427570000000     0.097260000000     0.0383176  
H6       H      0.875900000000     0.327770000000     0.097150000000     0.0383869  
H7       H      0.876240000000     0.327750000000     0.153290000000     0.0385271  
H8       H      0.877320000000     0.427560000000     0.153230000000     0.0384372  
H9       H      0.030560000000     0.428230000000     0.252460000000     0.0384829  
H10      H      0.030350000000     0.328420000000     0.252740000000     0.0385214  
H11      H      0.974220000000     0.328520000000     0.251310000000     0.0385197  
H12      H      0.974360000000     0.428330000000     0.251050000000     0.0384563  
H13      H      0.127910000000     0.427820000000     0.407100000000     0.0385252  
H14      H      0.127400000000     0.328010000000     0.407190000000     0.0384864  
H15      H      0.127110000000     0.327930000000     0.351140000000     0.0385397  
H16      H      0.127610000000     0.427740000000     0.351040000000     0.038524   
H17      H      0.127450000000     0.327930000000     0.101140000000     0.0384955  
H18      H      0.127930000000     0.427740000000     0.101040000000     0.0385009  
H19      H      0.128250000000     0.427820000000     0.157100000000     0.0385139  
H20      H      0.127760000000     0.328010000000     0.157200000000     0.0384305  
H21      H      0.974180000000     0.328440000000     0.502310000000     0.0385318  
H22      H      0.974350000000     0.428240000000     0.001430000000     0.0383306  
H23      H      0.030540000000     0.428150000000     0.002680000000     0.0382945  
H24      H      0.030330000000     0.328340000000     0.503560000000     0.0385008  
H25      H      0.780570000000     0.413730000000     0.215530000000     0.0352828  
H26      H      0.780790000000     0.342270000000     0.284830000000     0.0352514  
H27      H      0.724120000000     0.342450000000     0.285190000000     0.0355713  
H28      H      0.723910000000     0.412860000000     0.214830000000     0.0353763  
H29      H      0.627680000000     0.474730000000     0.200250000000     0.0384397  
H30      H      0.627730000000     0.474430000000     0.299840000000     0.0388282  
H31      H      0.627710000000     0.530580000000     0.299990000000     0.0387591  
H32      H      0.627680000000     0.530930000000     0.200400000000     0.0384234  
H33      H      0.781120000000     0.342260000000     0.964460000000     0.0354563  
H34      H      0.780200000000     0.414350000000     0.533110000000     0.0353416  
H35      H      0.723580000000     0.413610000000     0.533120000000     0.0354109  
H36      H      0.724420000000     0.342550000000     0.963420000000     0.0356405  
H37      H      0.626790000000     0.474590000000     0.047910000000     0.0386938  
H38      H      0.628240000000     0.474570000000     0.448320000000     0.0386952  
H39      H      0.628300000000     0.530880000000     0.448380000000     0.0386555  
H40      H      0.626850000000     0.530630000000     0.047970000000     0.0387464  
H41      H      0.474270000000     0.627770000000     0.300700000000     0.0388055  
H42      H      0.474250000000     0.627770000000     0.201100000000     0.0384513  
H43      H      0.530450000000     0.627870000000     0.201140000000     0.0384008  
H44      H      0.530430000000     0.627890000000     0.300730000000     0.0388122  
H45      H      0.474370000000     0.626980000000     0.048190000000     0.0387661  
H46      H      0.474100000000     0.628460000000     0.448610000000     0.0386347  
H47      H      0.530420000000     0.628610000000     0.448540000000     0.0386843  
H48      H      0.530390000000     0.627130000000     0.048120000000     0.0387359  
H49      H      0.280400000000     0.341660000000     0.219420000000     0.0343804  
H50      H      0.281050000000     0.412130000000     0.289700000000     0.0351285  
H51      H      0.224340000000     0.412960000000     0.289350000000     0.0354093  
H52      H      0.223760000000     0.341420000000     0.220130000000     0.0352119  
H53      H      0.473560000000     0.376510000000     0.200900000000     0.0386531  
H54      H      0.474940000000     0.377990000000     0.300470000000     0.0385653  
H55      H      0.531000000000     0.378100000000     0.299750000000     0.0385644  
H56      H      0.529840000000     0.376610000000     0.200170000000     0.0387274  
H57      H      0.376890000000     0.474120000000     0.202400000000     0.0385796  
H58      H      0.377010000000     0.474460000000     0.301990000000     0.0386194  
H59      H      0.377050000000     0.530650000000     0.301830000000     0.038589   
H60      H      0.376950000000     0.530290000000     0.202240000000     0.0386569  
H61      H      0.281010000000     0.412210000000     0.039430000000     0.0351313  
H62      H      0.280390000000     0.341820000000     0.469060000000     0.0344255  
H63      H      0.223750000000     0.341570000000     0.469780000000     0.0352077  
H64      H      0.224320000000     0.413030000000     0.039080000000     0.0351898  
H65      H      0.474970000000     0.377060000000     0.050830000000     0.0388779  
H66      H      0.473540000000     0.377130000000     0.451250000000     0.0384778  
H67      H      0.529740000000     0.377210000000     0.450480000000     0.0384429  
H68      H      0.531110000000     0.377130000000     0.050060000000     0.0382538  
H69      H      0.377190000000     0.474850000000     0.051250000000     0.0385567  
H70      H      0.376800000000     0.473720000000     0.451670000000     0.0386306  
H71      H      0.376800000000     0.529900000000     0.451050000000     0.0386094  
H72      H      0.377180000000     0.531020000000     0.050640000000     0.0385304  
H73      H      0.591350000000     0.780990000000     0.217420000000     0.0353219  
H74      H      0.662820000000     0.780970000000     0.286710000000     0.0351064  
H75      H      0.662520000000     0.724290000000     0.286990000000     0.0353838  
H76      H      0.592110000000     0.724350000000     0.216630000000     0.0354778  
H77      H      0.662870000000     0.781490000000     0.466780000000     0.0351073  
H78      H      0.591810000000     0.780450000000     0.036480000000     0.0349917  
H79      H      0.592550000000     0.723770000000     0.036370000000     0.0349176  
H80      H      0.662540000000     0.724840000000     0.465600000000     0.0343198  
H81      H      0.676160000000     0.878160000000     0.404960000000     0.0383863  
H82      H      0.576360000000     0.876590000000     0.405060000000     0.0386736  
H83      H      0.576340000000     0.876650000000     0.348920000000     0.0386319  
H84      H      0.676150000000     0.878220000000     0.348990000000     0.038377   
H85      H      0.677510000000     0.876780000000     0.098920000000     0.0385904  
H86      H      0.577700000000     0.877840000000     0.098990000000     0.038369   
H87      H      0.577690000000     0.877800000000     0.154960000000     0.0383876  
H88      H      0.677490000000     0.876730000000     0.155060000000     0.0385998  
H89      H      0.591270000000     0.224720000000     0.284520000000     0.0352469  
H90      H      0.662760000000     0.223990000000     0.215260000000     0.0352372  
H91      H      0.662430000000     0.280670000000     0.214330000000     0.0354781  
H92      H      0.592000000000     0.281360000000     0.284660000000     0.035397   
H93      H      0.576880000000     0.030750000000     0.251370000000     0.0384817  
H94      H      0.676690000000     0.030760000000     0.251380000000     0.038494   
H95      H      0.676700000000     0.974600000000     0.251700000000     0.0384633  
H96      H      0.576890000000     0.974560000000     0.251700000000     0.0385131  
H97      H      0.591230000000     0.224290000000     0.466190000000     0.0353675  
H98      H      0.663010000000     0.224420000000     0.035170000000     0.0353369  
H99      H      0.662780000000     0.281100000000     0.035290000000     0.0348206  
H100     H      0.592040000000     0.280930000000     0.465260000000     0.0354998  
H101     H      0.577630000000     0.127780000000     0.347760000000     0.0383718  
H102     H      0.677440000000     0.128860000000     0.347680000000     0.0385591  
H103     H      0.677440000000     0.128710000000     0.403820000000     0.0385397  
H104     H      0.577630000000     0.127630000000     0.403730000000     0.0384343  
H105     H      0.676100000000     0.126860000000     0.153730000000     0.0384148  
H106     H      0.576290000000     0.128420000000     0.153820000000     0.0386901  
H107     H      0.576290000000     0.128560000000     0.097680000000     0.0385809  
H108     H      0.676090000000     0.127000000000     0.097760000000     0.0383946  
H109     H      0.676610000000     0.030740000000     0.501080000000     0.0385092  
H110     H      0.576800000000     0.030750000000     0.001070000000     0.0383138  
H111     H      0.576810000000     0.974540000000     0.001600000000     0.0382469  
H112     H      0.676620000000     0.974590000000     0.501610000000     0.0385013  
H113     H      0.224070000000     0.663010000000     0.286940000000     0.0352664  
H114     H      0.224000000000     0.591080000000     0.218130000000     0.0354349  
H115     H      0.280650000000     0.591900000000     0.217220000000     0.0356251  
H116     H      0.280740000000     0.662790000000     0.287110000000     0.0355401  
H117     H      0.223750000000     0.590990000000     0.467860000000     0.0354894  
H118     H      0.224290000000     0.663020000000     0.036570000000     0.0350184  
H119     H      0.280970000000     0.662830000000     0.036300000000     0.0353483  
H120     H      0.280370000000     0.591850000000     0.466520000000     0.0356521  
H121     H      0.127680000000     0.576950000000     0.405690000000     0.0385367  
H122     H      0.127560000000     0.676760000000     0.405610000000     0.0385484  
H123     H      0.127550000000     0.676690000000     0.349550000000     0.0384679  
H124     H      0.127680000000     0.576880000000     0.349640000000     0.0385322  
H125     H      0.127620000000     0.676680000000     0.099540000000     0.0384438  
H126     H      0.127750000000     0.576870000000     0.099650000000     0.0384823  
H127     H      0.127770000000     0.576960000000     0.155710000000     0.0385223  
H128     H      0.127650000000     0.676770000000     0.155590000000     0.0384848  
H129     H      0.781000000000     0.663370000000     0.216700000000     0.0353216  
H130     H      0.780330000000     0.591400000000     0.285460000000     0.0355564  
H131     H      0.723690000000     0.592160000000     0.285700000000     0.0356488  
H132     H      0.724320000000     0.663090000000     0.215870000000     0.0356464  
H133     H      0.974320000000     0.676740000000     0.252160000000     0.0384882  
H134     H      0.974200000000     0.576930000000     0.252140000000     0.0384564  
H135     H      0.030400000000     0.576870000000     0.252420000000     0.0385093  
H136     H      0.030480000000     0.676680000000     0.252430000000     0.0385108  
H137     H      0.781120000000     0.663280000000     0.466660000000     0.0351057  
H138     H      0.780140000000     0.591890000000     0.036020000000     0.0350872  
H139     H      0.723460000000     0.592690000000     0.036030000000     0.0350207  
H140     H      0.724470000000     0.663020000000     0.465600000000     0.0343207  
H141     H      0.876660000000     0.577220000000     0.348610000000     0.038655   
H142     H      0.877010000000     0.677030000000     0.348700000000     0.0385064  
H143     H      0.877130000000     0.676960000000     0.404750000000     0.0384003  
H144     H      0.876770000000     0.577150000000     0.404670000000     0.0386808  
H145     H      0.876870000000     0.577230000000     0.098600000000     0.0383512  
H146     H      0.877230000000     0.677040000000     0.098710000000     0.0385747  
H147     H      0.877390000000     0.676960000000     0.154770000000     0.0384959  
H148     H      0.877020000000     0.577140000000     0.154650000000     0.0384342  
H149     H      0.974160000000     0.576890000000     0.002020000000     0.0383119  
H150     H      0.974290000000     0.676700000000     0.502040000000     0.0385211  
H151     H      0.030450000000     0.676640000000     0.502400000000     0.0385162  
H152     H      0.030370000000     0.576830000000     0.002400000000     0.038318   
H153     H      0.341570000000     0.223930000000     0.218800000000     0.0352304  
H154     H      0.413200000000     0.224190000000     0.287920000000     0.0352865  
H155     H      0.412450000000     0.280880000000     0.288450000000     0.0351464  
H156     H      0.341880000000     0.280580000000     0.218260000000     0.0344619  
H157     H      0.413090000000     0.224150000000     0.038190000000     0.0353072  
H158     H      0.341460000000     0.223980000000     0.469060000000     0.035204   
H159     H      0.341720000000     0.280620000000     0.468660000000     0.0344286  
H160     H      0.412290000000     0.280840000000     0.038860000000     0.0352237  
H161     H      0.327890000000     0.127720000000     0.406060000000     0.0384648  
H162     H      0.427700000000     0.128030000000     0.405970000000     0.0383797  
H163     H      0.427630000000     0.127760000000     0.349920000000     0.0383904  
H164     H      0.327820000000     0.127450000000     0.350000000000     0.0385638  
H165     H      0.327810000000     0.127370000000     0.100020000000     0.0385049  
H166     H      0.427620000000     0.127670000000     0.099900000000     0.0386216  
H167     H      0.427710000000     0.127940000000     0.155960000000     0.0386291  
H168     H      0.327890000000     0.127640000000     0.156070000000     0.0384297  
H169     H      0.412800000000     0.724120000000     0.285290000000     0.0357041  
H170     H      0.341990000000     0.723950000000     0.215330000000     0.0354469  
H171     H      0.341780000000     0.780630000000     0.215430000000     0.0352253  
H172     H      0.413640000000     0.780760000000     0.284320000000     0.0355613  
H173     H      0.427940000000     0.974330000000     0.250090000000     0.0384863  
H174     H      0.328140000000     0.974270000000     0.251240000000     0.0385151  
H175     H      0.328100000000     0.030410000000     0.252440000000     0.0384996  
H176     H      0.427910000000     0.030520000000     0.251290000000     0.0384843  
H177     H      0.341630000000     0.780950000000     0.464720000000     0.0353117  
H178     H      0.414000000000     0.780420000000     0.033070000000     0.0354395  
H179     H      0.413230000000     0.723800000000     0.033440000000     0.0355815  
H180     H      0.341890000000     0.724260000000     0.464020000000     0.0354893  
H181     H      0.328080000000     0.877530000000     0.402860000000     0.0385053  
H182     H      0.427890000000     0.877370000000     0.402760000000     0.038715   
H183     H      0.427810000000     0.877120000000     0.346700000000     0.0385886  
H184     H      0.327990000000     0.877280000000     0.346810000000     0.0385196  
H185     H      0.328010000000     0.876760000000     0.096800000000     0.0383584  
H186     H      0.427820000000     0.876600000000     0.096710000000     0.0382252  
H187     H      0.427890000000     0.876850000000     0.152770000000     0.0384299  
H188     H      0.328080000000     0.877020000000     0.152860000000     0.0384194  
H189     H      0.427940000000     0.974330000000     0.500380000000     0.0385079  
H190     H      0.328140000000     0.974260000000     0.001560000000     0.0383436  
H191     H      0.328110000000     0.030410000000     0.002570000000     0.0382802  
H192     H      0.427910000000     0.030520000000     0.501400000000     0.0384575  
H193     H      0.876560000000     0.428890000000     0.847160000000     0.0386861  
H194     H      0.878130000000     0.329090000000     0.847260000000     0.038502   
H195     H      0.878460000000     0.329100000000     0.903230000000     0.0386306  
H196     H      0.876890000000     0.428900000000     0.903300000000     0.0389851  
H197     H      0.876980000000     0.427570000000     0.597260000000     0.0383565  
H198     H      0.875900000000     0.327770000000     0.597150000000     0.0385584  
H199     H      0.876240000000     0.327750000000     0.653290000000     0.0385822  
H200     H      0.877320000000     0.427560000000     0.653230000000     0.0384352  
H201     H      0.030560000000     0.428230000000     0.752470000000     0.0385056  
H202     H      0.030350000000     0.328420000000     0.752740000000     0.0385783  
H203     H      0.974220000000     0.328520000000     0.751310000000     0.0385769  
H204     H      0.974360000000     0.428330000000     0.751050000000     0.0384795  
H205     H      0.127910000000     0.427820000000     0.907100000000     0.0388113  
H206     H      0.127400000000     0.328010000000     0.907190000000     0.0387706  
H207     H      0.127110000000     0.327930000000     0.851140000000     0.0386233  
H208     H      0.127610000000     0.427740000000     0.851040000000     0.0385847  
H209     H      0.127450000000     0.327930000000     0.601140000000     0.0385614  
H210     H      0.127930000000     0.427740000000     0.601040000000     0.0385193  
H211     H      0.128250000000     0.427820000000     0.657090000000     0.0385208  
H212     H      0.127760000000     0.328010000000     0.657200000000     0.0384783  
H213     H      0.974180000000     0.328440000000     0.002310000000     0.0382539  
H214     H      0.974350000000     0.428240000000     0.501430000000     0.0385143  
H215     H      0.030540000000     0.428150000000     0.502680000000     0.0384536  
H216     H      0.030330000000     0.328340000000     0.003560000000     0.0383     
H217     H      0.780570000000     0.413730000000     0.715530000000     0.0352884  
H218     H      0.780790000000     0.342270000000     0.784820000000     0.0352882  
H219     H      0.724120000000     0.342450000000     0.785190000000     0.0356022  
H220     H      0.723910000000     0.412860000000     0.714830000000     0.0354065  
H221     H      0.627680000000     0.474730000000     0.700250000000     0.0384489  
H222     H      0.627730000000     0.474430000000     0.799840000000     0.038851   
H223     H      0.627710000000     0.530580000000     0.800000000000     0.0387653  
H224     H      0.627680000000     0.530930000000     0.700400000000     0.0384318  
H225     H      0.781120000000     0.342260000000     0.464460000000     0.0352848  
H226     H      0.780200000000     0.414350000000     0.033110000000     0.0354514  
H227     H      0.723580000000     0.413610000000     0.033120000000     0.0354741  
H228     H      0.724420000000     0.342550000000     0.463420000000     0.0354355  
H229     H      0.626790000000     0.474590000000     0.547910000000     0.038496   
H230     H      0.628240000000     0.474570000000     0.948330000000     0.038835   
H231     H      0.628300000000     0.530880000000     0.948380000000     0.0387184  
H232     H      0.626850000000     0.530630000000     0.547970000000     0.0386084  
H233     H      0.474270000000     0.627770000000     0.800700000000     0.0388279  
H234     H      0.474250000000     0.627770000000     0.701100000000     0.0384675  
H235     H      0.530450000000     0.627870000000     0.701140000000     0.038387   
H236     H      0.530430000000     0.627890000000     0.800730000000     0.038819   
H237     H      0.474370000000     0.626980000000     0.548190000000     0.0385929  
H238     H      0.474100000000     0.628460000000     0.948610000000     0.038733   
H239     H      0.530420000000     0.628610000000     0.948540000000     0.0387841  
H240     H      0.530390000000     0.627130000000     0.548130000000     0.0385306  
H241     H      0.280400000000     0.341660000000     0.719420000000     0.0343619  
H242     H      0.281050000000     0.412130000000     0.789700000000     0.0351287  
H243     H      0.224340000000     0.412960000000     0.789350000000     0.0354516  
H244     H      0.223760000000     0.341420000000     0.720130000000     0.0352724  
H245     H      0.473560000000     0.376510000000     0.700900000000     0.0386559  
H246     H      0.474940000000     0.377990000000     0.800470000000     0.0385884  
H247     H      0.531000000000     0.378100000000     0.799750000000     0.0385844  
H248     H      0.529840000000     0.376610000000     0.700170000000     0.0387339  
H249     H      0.376890000000     0.474120000000     0.702400000000     0.0385811  
H250     H      0.377010000000     0.474460000000     0.801990000000     0.038643   
H251     H      0.377050000000     0.530650000000     0.801830000000     0.0386078  
H252     H      0.376950000000     0.530290000000     0.702240000000     0.038661   
H253     H      0.281010000000     0.412210000000     0.539430000000     0.0351945  
H254     H      0.280390000000     0.341820000000     0.969060000000     0.0344545  
H255     H      0.223750000000     0.341570000000     0.969780000000     0.0352231  
H256     H      0.224320000000     0.413030000000     0.539080000000     0.0353973  
H257     H      0.474970000000     0.377060000000     0.550830000000     0.0387355  
H258     H      0.473540000000     0.377130000000     0.951250000000     0.0385465  
H259     H      0.529740000000     0.377210000000     0.950480000000     0.0378198  
H260     H      0.531110000000     0.377130000000     0.550060000000     0.0388063  
H261     H      0.377190000000     0.474850000000     0.551250000000     0.038617   
H262     H      0.376800000000     0.473720000000     0.951670000000     0.0384971  
H263     H      0.376800000000     0.529900000000     0.951050000000     0.0384547  
H264     H      0.377180000000     0.531020000000     0.550640000000     0.0386074  
H265     H      0.591350000000     0.780990000000     0.717420000000     0.0352987  
H266     H      0.662820000000     0.780970000000     0.786710000000     0.0351587  
H267     H      0.662520000000     0.724290000000     0.786990000000     0.0354206  
H268     H      0.592110000000     0.724350000000     0.716640000000     0.0355051  
H269     H      0.662870000000     0.781490000000     0.966780000000     0.0351166  
H270     H      0.591810000000     0.780450000000     0.536480000000     0.0352193  
H271     H      0.592550000000     0.723770000000     0.536370000000     0.0350388  
H272     H      0.662540000000     0.724840000000     0.965600000000     0.0343404  
H273     H      0.676160000000     0.878160000000     0.904960000000     0.0386663  
H274     H      0.576360000000     0.876590000000     0.905060000000     0.0389305  
H275     H      0.576340000000     0.876650000000     0.848920000000     0.0386864  
H276     H      0.676150000000     0.878220000000     0.848990000000     0.0384629  
H277     H      0.677510000000     0.876780000000     0.598920000000     0.0386607  
H278     H      0.577700000000     0.877840000000     0.598990000000     0.0384096  
H279     H      0.577690000000     0.877800000000     0.654960000000     0.0384015  
H280     H      0.677490000000     0.876730000000     0.655060000000     0.0386444  
H281     H      0.591270000000     0.224720000000     0.784520000000     0.0352667  
H282     H      0.662760000000     0.223990000000     0.715260000000     0.0352404  
H283     H      0.662430000000     0.280670000000     0.714330000000     0.03551    
H284     H      0.592000000000     0.281360000000     0.784660000000     0.0354224  
H285     H      0.576880000000     0.030750000000     0.751370000000     0.0385039  
H286     H      0.676690000000     0.030760000000     0.751380000000     0.0385506  
H287     H      0.676700000000     0.974600000000     0.751710000000     0.0385223  
H288     H      0.576890000000     0.974560000000     0.751700000000     0.0385383  
H289     H      0.591230000000     0.224290000000     0.966190000000     0.0355987  
H290     H      0.663010000000     0.224420000000     0.535170000000     0.035237   
H291     H      0.662780000000     0.281100000000     0.535290000000     0.035554   
H292     H      0.592040000000     0.280930000000     0.965260000000     0.0349345  
H293     H      0.577630000000     0.127780000000     0.847760000000     0.038422   
H294     H      0.677440000000     0.128860000000     0.847680000000     0.0386431  
H295     H      0.677440000000     0.128710000000     0.903820000000     0.0388346  
H296     H      0.577630000000     0.127630000000     0.903730000000     0.038685   
H297     H      0.676100000000     0.126860000000     0.653730000000     0.0384632  
H298     H      0.576290000000     0.128420000000     0.653820000000     0.0387059  
H299     H      0.576290000000     0.128560000000     0.597680000000     0.0386258  
H300     H      0.676090000000     0.127000000000     0.597760000000     0.0384569  
H301     H      0.676610000000     0.030740000000     0.001080000000     0.038315   
H302     H      0.576800000000     0.030750000000     0.501070000000     0.0384883  
H303     H      0.576810000000     0.974540000000     0.501600000000     0.0384505  
H304     H      0.676620000000     0.974590000000     0.001610000000     0.0382941  
H305     H      0.224070000000     0.663010000000     0.786940000000     0.0353235  
H306     H      0.224000000000     0.591080000000     0.718130000000     0.0354514  
H307     H      0.280650000000     0.591900000000     0.717220000000     0.0356075  
H308     H      0.280740000000     0.662790000000     0.787110000000     0.035547   
H309     H      0.223750000000     0.590990000000     0.967860000000     0.035514   
H310     H      0.224290000000     0.663020000000     0.536570000000     0.0352452  
H311     H      0.280970000000     0.662830000000     0.536300000000     0.0354982  
H312     H      0.280370000000     0.591850000000     0.966520000000     0.0356997  
H313     H      0.127680000000     0.576950000000     0.905690000000     0.038796   
H314     H      0.127560000000     0.676760000000     0.905610000000     0.0388356  
H315     H      0.127550000000     0.676690000000     0.849550000000     0.0385669  
H316     H      0.127680000000     0.576880000000     0.849640000000     0.0386001  
H317     H      0.127620000000     0.676680000000     0.599540000000     0.0385026  
H318     H      0.127750000000     0.576870000000     0.599650000000     0.0385066  
H319     H      0.127770000000     0.576960000000     0.655710000000     0.0385295  
H320     H      0.127650000000     0.676770000000     0.655590000000     0.0385333  
H321     H      0.781000000000     0.663370000000     0.716700000000     0.0353497  
H322     H      0.780330000000     0.591400000000     0.785460000000     0.0355811  
H323     H      0.723690000000     0.592160000000     0.785700000000     0.0356829  
H324     H      0.724320000000     0.663090000000     0.715870000000     0.0356634  
H325     H      0.974320000000     0.676740000000     0.752160000000     0.0385463  
H326     H      0.974200000000     0.576930000000     0.752140000000     0.0384801  
H327     H      0.030400000000     0.576870000000     0.752420000000     0.0385326  
H328     H      0.030480000000     0.676680000000     0.752430000000     0.0385691  
H329     H      0.781120000000     0.663280000000     0.966660000000     0.0351214  
H330     H      0.780140000000     0.591890000000     0.536020000000     0.035284   
H331     H      0.723460000000     0.592690000000     0.536030000000     0.0351269  
H332     H      0.724470000000     0.663020000000     0.965600000000     0.0343424  
H333     H      0.876660000000     0.577220000000     0.848610000000     0.0387166  
H334     H      0.877010000000     0.677030000000     0.848700000000     0.0385928  
H335     H      0.877130000000     0.676960000000     0.904750000000     0.0386856  
H336     H      0.876770000000     0.577150000000     0.904670000000     0.038968   
H337     H      0.876870000000     0.577230000000     0.598600000000     0.0383653  
H338     H      0.877230000000     0.677040000000     0.598710000000     0.0386321  
H339     H      0.877390000000     0.676960000000     0.654770000000     0.0385371  
H340     H      0.877020000000     0.577140000000     0.654650000000     0.0384385  
H341     H      0.974160000000     0.576890000000     0.502020000000     0.038476   
H342     H      0.974290000000     0.676700000000     0.002030000000     0.0383214  
H343     H      0.030450000000     0.676640000000     0.002400000000     0.0383193  
H344     H      0.030370000000     0.576830000000     0.502400000000     0.0384859  
H345     H      0.341570000000     0.223930000000     0.718800000000     0.0352446  
H346     H      0.413200000000     0.224190000000     0.787920000000     0.035319   
H347     H      0.412450000000     0.280880000000     0.788450000000     0.0351724  
H348     H      0.341880000000     0.280580000000     0.718260000000     0.0344758  
H349     H      0.413090000000     0.224150000000     0.538190000000     0.0355153  
H350     H      0.341460000000     0.223980000000     0.969060000000     0.0352165  
H351     H      0.341720000000     0.280620000000     0.968660000000     0.0344557  
H352     H      0.412290000000     0.280840000000     0.538860000000     0.035295   
H353     H      0.327890000000     0.127720000000     0.906060000000     0.0387468  
H354     H      0.427700000000     0.128030000000     0.905970000000     0.0386541  
H355     H      0.427630000000     0.127760000000     0.849920000000     0.0384482  
H356     H      0.327820000000     0.127450000000     0.850000000000     0.0386512  
H357     H      0.327810000000     0.127370000000     0.600020000000     0.0385728  
H358     H      0.427620000000     0.127670000000     0.599900000000     0.0386504  
H359     H      0.427710000000     0.127940000000     0.655960000000     0.0386396  
H360     H      0.327890000000     0.127640000000     0.656070000000     0.0384731  
H361     H      0.412800000000     0.724120000000     0.785290000000     0.0356931  
H362     H      0.341990000000     0.723950000000     0.715330000000     0.0354466  
H363     H      0.341780000000     0.780630000000     0.715430000000     0.0352725  
H364     H      0.413640000000     0.780760000000     0.784310000000     0.0356078  
H365     H      0.427940000000     0.974330000000     0.750090000000     0.0385113  
H366     H      0.328140000000     0.974270000000     0.751240000000     0.0385745  
H367     H      0.328100000000     0.030410000000     0.752440000000     0.0385563  
H368     H      0.427910000000     0.030520000000     0.751290000000     0.0385061  
H369     H      0.341630000000     0.780950000000     0.964720000000     0.0354878  
H370     H      0.414000000000     0.780420000000     0.533070000000     0.0353835  
H371     H      0.413230000000     0.723800000000     0.533440000000     0.0355126  
H372     H      0.341890000000     0.724260000000     0.964020000000     0.0357111  
H373     H      0.328080000000     0.877530000000     0.902860000000     0.0386606  
H374     H      0.427890000000     0.877370000000     0.902760000000     0.0388662  
H375     H      0.427810000000     0.877120000000     0.846710000000     0.0386661  
H376     H      0.327990000000     0.877280000000     0.846810000000     0.0386186  
H377     H      0.328010000000     0.876760000000     0.596800000000     0.0385405  
H378     H      0.427820000000     0.876600000000     0.596710000000     0.0383562  
H379     H      0.427890000000     0.876850000000     0.652770000000     0.0384319  
H380     H      0.328080000000     0.877020000000     0.652860000000     0.0384604  
H381     H      0.427940000000     0.974330000000     0.000380000000     0.0381859  
H382     H      0.328140000000     0.974260000000     0.501560000000     0.038523   
H383     H      0.328110000000     0.030410000000     0.502570000000     0.0385193  
H384     H      0.427910000000     0.030520000000     0.001400000000     0.0382307  
O1       O      0.403710000000     0.877110000000     0.043560000000    -0.545906   
O2       O      0.403800000000     0.877030000000     0.456110000000    -0.542824   
O3       O      0.403820000000     0.920900000000     0.999870000000    -0.541927   
O4       O      0.403720000000     0.833240000000     0.500080000000    -0.542341   
O5       O      0.352040000000     0.833320000000     0.998700000000    -0.543167   
O6       O      0.352210000000     0.920950000000     0.500450000000    -0.543717   
O7       O      0.352190000000     0.877860000000     0.456000000000    -0.544312   
O8       O      0.352100000000     0.876400000000     0.043440000000    -0.544565   
O9       O      0.403690000000     0.877400000000     0.293570000000    -0.54437    
O10      O      0.403790000000     0.876730000000     0.206120000000    -0.542823   
O11      O      0.403810000000     0.920900000000     0.249610000000    -0.543274   
O12      O      0.403690000000     0.833240000000     0.250430000000    -0.542438   
O13      O      0.352010000000     0.833330000000     0.249040000000    -0.542773   
O14      O      0.352200000000     0.920960000000     0.250190000000    -0.543864   
O15      O      0.352180000000     0.877580000000     0.206000000000    -0.544162   
O16      O      0.352080000000     0.876700000000     0.293460000000    -0.543053   
O17      O      0.403590000000     0.128380000000     0.459330000000    -0.543014   
O18      O      0.403500000000     0.127130000000     0.046770000000    -0.54382    
O19      O      0.403700000000     0.083920000000     0.502420000000    -0.543149   
O20      O      0.403400000000     0.171590000000     0.003970000000    -0.542336   
O21      O      0.351730000000     0.171380000000     0.502570000000    -0.543076   
O22      O      0.352090000000     0.083750000000     0.003010000000    -0.543865   
O23      O      0.351890000000     0.127720000000     0.046660000000    -0.542808   
O24      O      0.351990000000     0.127420000000     0.459210000000    -0.544492   
O25      O      0.403610000000     0.128320000000     0.209320000000    -0.542902   
O26      O      0.403520000000     0.127170000000     0.296770000000    -0.544225   
O27      O      0.403710000000     0.083910000000     0.252450000000    -0.543131   
O28      O      0.403450000000     0.171570000000     0.253890000000    -0.542372   
O29      O      0.351780000000     0.171390000000     0.252490000000    -0.543113   
O30      O      0.352100000000     0.083760000000     0.253030000000    -0.54389    
O31      O      0.351910000000     0.127780000000     0.296650000000    -0.543188   
O32      O      0.352010000000     0.127380000000     0.209200000000    -0.544457   
O33      O      0.877260000000     0.601350000000     0.045470000000    -0.5441     
O34      O      0.876580000000     0.601250000000     0.458020000000    -0.542612   
O35      O      0.920760000000     0.601130000000     0.001470000000    -0.543157   
O36      O      0.833090000000     0.601470000000     0.502330000000    -0.542267   
O37      O      0.833330000000     0.653140000000     0.000940000000    -0.543562   
O38      O      0.920950000000     0.652740000000     0.502040000000    -0.543768   
O39      O      0.877560000000     0.652860000000     0.457900000000    -0.544402   
O40      O      0.876710000000     0.652960000000     0.045360000000    -0.542655   
O41      O      0.877190000000     0.601320000000     0.295460000000    -0.544061   
O42      O      0.876780000000     0.601230000000     0.208010000000    -0.542999   
O43      O      0.920820000000     0.601150000000     0.251580000000    -0.543783   
O44      O      0.833170000000     0.601390000000     0.252160000000    -0.542595   
O45      O      0.833330000000     0.653060000000     0.250780000000    -0.542875   
O46      O      0.920960000000     0.652750000000     0.252140000000    -0.543972   
O47      O      0.877690000000     0.652840000000     0.207890000000    -0.544235   
O48      O      0.876580000000     0.652940000000     0.295340000000    -0.542961   
O49      O      0.127250000000     0.601050000000     0.458840000000    -0.544215   
O50      O      0.128040000000     0.600960000000     0.046290000000    -0.542561   
O51      O      0.083810000000     0.600940000000     0.502900000000    -0.54329    
O52      O      0.171470000000     0.601050000000     0.001910000000    -0.542912   
O53      O      0.171400000000     0.652720000000     0.503290000000    -0.54284    
O54      O      0.083760000000     0.652550000000     0.002340000000    -0.543758   
O55      O      0.127210000000     0.652570000000     0.046410000000    -0.54385    
O56      O      0.127950000000     0.652660000000     0.458960000000    -0.543133   
O57      O      0.127320000000     0.601080000000     0.208840000000    -0.544205   
O58      O      0.128020000000     0.600980000000     0.296290000000    -0.542932   
O59      O      0.083830000000     0.600980000000     0.252860000000    -0.543362   
O60      O      0.171490000000     0.601070000000     0.251970000000    -0.542591   
O61      O      0.171420000000     0.652740000000     0.253350000000    -0.543001   
O62      O      0.083790000000     0.652590000000     0.252300000000    -0.543887   
O63      O      0.127190000000     0.652590000000     0.296410000000    -0.54437    
O64      O      0.128020000000     0.652690000000     0.208960000000    -0.543082   
O65      O      0.600660000000     0.128360000000     0.044260000000    -0.542202   
O66      O      0.601460000000     0.127630000000     0.456810000000    -0.544314   
O67      O      0.600960000000     0.084160000000     0.000880000000    -0.542916   
O68      O      0.601140000000     0.171820000000     0.499920000000    -0.542475   
O69      O      0.652800000000     0.171710000000     0.001660000000    -0.542438   
O70      O      0.652570000000     0.084070000000     0.500630000000    -0.543875   
O71      O      0.653070000000     0.128330000000     0.457260000000    -0.542796   
O72      O      0.652260000000     0.127460000000     0.044700000000    -0.544453   
O73      O      0.601470000000     0.127860000000     0.294680000000    -0.544425   
O74      O      0.600660000000     0.128130000000     0.207230000000    -0.542679   
O75      O      0.601010000000     0.084160000000     0.250890000000    -0.543553   
O76      O      0.601110000000     0.171820000000     0.251310000000    -0.542265   
O77      O      0.652780000000     0.171730000000     0.249560000000    -0.542712   
O78      O      0.652620000000     0.084100000000     0.251140000000    -0.543883   
O79      O      0.652270000000     0.127260000000     0.206800000000    -0.544599   
O80      O      0.653080000000     0.128580000000     0.294240000000    -0.542764   
O81      O      0.600740000000     0.876870000000     0.458480000000    -0.542765   
O82      O      0.601540000000     0.877690000000     0.045920000000    -0.544214   
O83      O      0.601000000000     0.921120000000     0.501820000000    -0.543252   
O84      O      0.601270000000     0.833450000000     0.002850000000    -0.542322   
O85      O      0.652940000000     0.833640000000     0.501100000000    -0.54278    
O86      O      0.652610000000     0.921270000000     0.002080000000    -0.543898   
O87      O      0.653150000000     0.877060000000     0.045480000000    -0.542523   
O88      O      0.652340000000     0.877850000000     0.458030000000    -0.544566   
O89      O      0.601510000000     0.877670000000     0.208040000000    -0.54437    
O90      O      0.600710000000     0.877020000000     0.295490000000    -0.542791   
O91      O      0.601040000000     0.921170000000     0.252030000000    -0.54345    
O92      O      0.601160000000     0.833520000000     0.251190000000    -0.542663   
O93      O      0.652820000000     0.833600000000     0.252950000000    -0.542839   
O94      O      0.652650000000     0.921240000000     0.251780000000    -0.543717   
O95      O      0.652310000000     0.877890000000     0.295930000000    -0.544827   
O96      O      0.653120000000     0.876950000000     0.208490000000    -0.542733   
O97      O      0.377570000000     0.421290000000     0.027860000000    -0.543652   
O98      O      0.377810000000     0.333640000000     0.029050000000    -0.541255   
O99      O      0.421370000000     0.377500000000     0.027650000000    -0.543643   
O100     O      0.333730000000     0.377710000000     0.029270000000    -0.541175   
O101     O      0.332770000000     0.376480000000     0.477710000000    -0.543318   
O102     O      0.420410000000     0.376700000000     0.476160000000    -0.543212   
O103     O      0.376350000000     0.332930000000     0.477490000000    -0.543432   
O104     O      0.376530000000     0.420550000000     0.476370000000    -0.543344   
O105     O      0.377600000000     0.421130000000     0.278170000000    -0.544577   
O106     O      0.377980000000     0.333500000000     0.278810000000    -0.542112   
O107     O      0.421460000000     0.377430000000     0.277440000000    -0.544359   
O108     O      0.333830000000     0.377490000000     0.279450000000    -0.541779   
O109     O      0.332690000000     0.376590000000     0.227880000000    -0.54312    
O110     O      0.420320000000     0.376910000000     0.225950000000    -0.542736   
O111     O      0.376310000000     0.333060000000     0.227250000000    -0.542741   
O112     O      0.376400000000     0.420730000000     0.226680000000    -0.542777   
O113     O      0.377330000000     0.583480000000     0.474470000000    -0.543438   
O114     O      0.375610000000     0.671130000000     0.473420000000    -0.541026   
O115     O      0.420450000000     0.628040000000     0.473180000000    -0.541492   
O116     O      0.332770000000     0.626280000000     0.474730000000    -0.542257   
O117     O      0.333720000000     0.629030000000     0.026230000000    -0.542353   
O118     O      0.421280000000     0.627190000000     0.024670000000    -0.546831   
O119     O      0.378600000000     0.671770000000     0.024910000000    -0.545183   
O120     O      0.376730000000     0.584170000000     0.025970000000    -0.543197   
O121     O      0.377610000000     0.583580000000     0.225990000000    -0.544529   
O122     O      0.375840000000     0.671160000000     0.225120000000    -0.542462   
O123     O      0.420710000000     0.628120000000     0.225290000000    -0.542295   
O124     O      0.333030000000     0.626320000000     0.225940000000    -0.542569   
O125     O      0.333510000000     0.628950000000     0.277460000000    -0.542384   
O126     O      0.421090000000     0.627190000000     0.276790000000    -0.5447     
O127     O      0.378350000000     0.671760000000     0.276640000000    -0.542552   
O128     O      0.376560000000     0.584090000000     0.277480000000    -0.542515   
O129     O      0.584140000000     0.376890000000     0.025320000000    -0.546179   
O130     O      0.671710000000     0.378910000000     0.024330000000    -0.545706   
O131     O      0.627070000000     0.421520000000     0.024220000000    -0.547057   
O132     O      0.629050000000     0.333950000000     0.025400000000    -0.544895   
O133     O      0.626330000000     0.333240000000     0.473890000000    -0.542532   
O134     O      0.627940000000     0.420910000000     0.472730000000    -0.541625   
O135     O      0.671130000000     0.376150000000     0.472820000000    -0.54062    
O136     O      0.583440000000     0.377710000000     0.473830000000    -0.543036   
O137     O      0.583780000000     0.378050000000     0.275410000000    -0.54549    
O138     O      0.671340000000     0.376230000000     0.275600000000    -0.542749   
O139     O      0.628330000000     0.421090000000     0.275630000000    -0.543267   
O140     O      0.626470000000     0.333470000000     0.275330000000    -0.543722   
O141     O      0.628660000000     0.333710000000     0.223790000000    -0.541236   
O142     O      0.626960000000     0.421350000000     0.224140000000    -0.543647   
O143     O      0.671520000000     0.378560000000     0.224070000000    -0.542182   
O144     O      0.583810000000     0.376810000000     0.223920000000    -0.541281   
O145     O      0.627170000000     0.583730000000     0.024410000000    -0.547268   
O146     O      0.626950000000     0.671300000000     0.025920000000    -0.542909   
O147     O      0.583430000000     0.627470000000     0.024480000000    -0.547319   
O148     O      0.671000000000     0.627250000000     0.025840000000    -0.542823   
O149     O      0.671820000000     0.628610000000     0.474280000000    -0.542166   
O150     O      0.584120000000     0.628400000000     0.472980000000    -0.541444   
O151     O      0.628210000000     0.672210000000     0.474360000000    -0.542148   
O152     O      0.628030000000     0.584510000000     0.472920000000    -0.54161    
O153     O      0.626970000000     0.583870000000     0.276240000000    -0.544841   
O154     O      0.628700000000     0.671460000000     0.277100000000    -0.542267   
O155     O      0.583870000000     0.628390000000     0.276690000000    -0.542866   
O156     O      0.671510000000     0.626630000000     0.276570000000    -0.543329   
O157     O      0.671360000000     0.629230000000     0.225050000000    -0.541773   
O158     O      0.583730000000     0.627440000000     0.225190000000    -0.54412    
O159     O      0.626490000000     0.672020000000     0.225560000000    -0.542676   
O160     O      0.628300000000     0.584370000000     0.224760000000    -0.542674   
O161     O      0.127230000000     0.403630000000     0.047900000000    -0.54396    
O162     O      0.128290000000     0.403720000000     0.460450000000    -0.542584   
O163     O      0.083920000000     0.403880000000     0.003630000000    -0.543097   
O164     O      0.171590000000     0.403480000000     0.505000000000    -0.54216    
O165     O      0.171320000000     0.351810000000     0.003600000000    -0.543335   
O166     O      0.083690000000     0.352270000000     0.504210000000    -0.543882   
O167     O      0.127270000000     0.352110000000     0.460330000000    -0.544305   
O168     O      0.127750000000     0.352020000000     0.047790000000    -0.54272    
O169     O      0.127080000000     0.403630000000     0.297900000000    -0.54407    
O170     O      0.128520000000     0.403720000000     0.210450000000    -0.542828   
O171     O      0.083960000000     0.403930000000     0.253430000000    -0.543      
O172     O      0.171630000000     0.403430000000     0.255180000000    -0.542111   
O173     O      0.171310000000     0.351760000000     0.253790000000    -0.542986   
O174     O      0.083680000000     0.352320000000     0.254000000000    -0.543947   
O175     O      0.127450000000     0.352120000000     0.210330000000    -0.544417   
O176     O      0.127550000000     0.352020000000     0.297790000000    -0.543064   
O177     O      0.877180000000     0.404550000000     0.456720000000    -0.54268    
O178     O      0.876950000000     0.403750000000     0.044170000000    -0.543924   
O179     O      0.920900000000     0.404170000000     0.500660000000    -0.5433     
O180     O      0.833230000000     0.404140000000     0.000510000000    -0.543863   
O181     O      0.833270000000     0.352480000000     0.498770000000    -0.542618   
O182     O      0.920900000000     0.352560000000     0.000930000000    -0.545549   
O183     O      0.876170000000     0.352140000000     0.043720000000    -0.544344   
O184     O      0.878000000000     0.352940000000     0.456290000000    -0.544629   
O185     O      0.877450000000     0.403710000000     0.206300000000    -0.544341   
O186     O      0.876630000000     0.404510000000     0.293750000000    -0.542706   
O187     O      0.920880000000     0.404210000000     0.250450000000    -0.542948   
O188     O      0.833200000000     0.404020000000     0.249350000000    -0.542252   
O189     O      0.833330000000     0.352360000000     0.251100000000    -0.543017   
O190     O      0.920960000000     0.352600000000     0.250200000000    -0.544032   
O191     O      0.877530000000     0.352910000000     0.294190000000    -0.544716   
O192     O      0.876750000000     0.352100000000     0.206740000000    -0.542644   
O193     O      0.403710000000     0.877110000000     0.543560000000    -0.544336   
O194     O      0.403800000000     0.877030000000     0.956110000000    -0.543214   
O195     O      0.403820000000     0.920900000000     0.499870000000    -0.543418   
O196     O      0.403720000000     0.833240000000     0.000080000000    -0.545391   
O197     O      0.352040000000     0.833320000000     0.498700000000    -0.542589   
O198     O      0.352210000000     0.920950000000     0.000450000000    -0.544878   
O199     O      0.352190000000     0.877860000000     0.956000000000    -0.544705   
O200     O      0.352100000000     0.876400000000     0.543440000000    -0.542961   
O201     O      0.403690000000     0.877400000000     0.793580000000    -0.544202   
O202     O      0.403790000000     0.876730000000     0.706120000000    -0.542766   
O203     O      0.403810000000     0.920900000000     0.749610000000    -0.543218   
O204     O      0.403690000000     0.833240000000     0.750430000000    -0.542386   
O205     O      0.352010000000     0.833330000000     0.749040000000    -0.542757   
O206     O      0.352200000000     0.920960000000     0.750190000000    -0.543842   
O207     O      0.352180000000     0.877580000000     0.706000000000    -0.544153   
O208     O      0.352080000000     0.876700000000     0.793460000000    -0.543053   
O209     O      0.403590000000     0.128380000000     0.959330000000    -0.541464   
O210     O      0.403500000000     0.127130000000     0.546770000000    -0.544148   
O211     O      0.403700000000     0.083920000000     0.002420000000    -0.543179   
O212     O      0.403400000000     0.171590000000     0.503970000000    -0.542113   
O213     O      0.351730000000     0.171380000000     0.002570000000    -0.543459   
O214     O      0.352090000000     0.083750000000     0.503010000000    -0.543836   
O215     O      0.351890000000     0.127720000000     0.546660000000    -0.543112   
O216     O      0.351990000000     0.127420000000     0.959210000000    -0.542949   
O217     O      0.403610000000     0.128320000000     0.709320000000    -0.542906   
O218     O      0.403520000000     0.127170000000     0.796770000000    -0.544196   
O219     O      0.403710000000     0.083910000000     0.752450000000    -0.543115   
O220     O      0.403450000000     0.171570000000     0.753890000000    -0.542369   
O221     O      0.351780000000     0.171390000000     0.752500000000    -0.543102   
O222     O      0.352100000000     0.083760000000     0.753030000000    -0.543864   
O223     O      0.351910000000     0.127780000000     0.796650000000    -0.543139   
O224     O      0.352010000000     0.127380000000     0.709200000000    -0.544463   
O225     O      0.877260000000     0.601350000000     0.545470000000    -0.544399   
O226     O      0.876580000000     0.601250000000     0.958020000000    -0.541066   
O227     O      0.920760000000     0.601130000000     0.501470000000    -0.543138   
O228     O      0.833090000000     0.601470000000     0.002330000000    -0.542486   
O229     O      0.833330000000     0.653140000000     0.500940000000    -0.543225   
O230     O      0.920950000000     0.652740000000     0.002040000000    -0.543743   
O231     O      0.877560000000     0.652860000000     0.957900000000    -0.542808   
O232     O      0.876710000000     0.652960000000     0.545350000000    -0.543098   
O233     O      0.877190000000     0.601320000000     0.795460000000    -0.544034   
O234     O      0.876780000000     0.601230000000     0.708010000000    -0.543002   
O235     O      0.920820000000     0.601150000000     0.751580000000    -0.543768   
O236     O      0.833170000000     0.601390000000     0.752160000000    -0.54259    
O237     O      0.833330000000     0.653060000000     0.750780000000    -0.542857   
O238     O      0.920960000000     0.652750000000     0.752140000000    -0.543945   
O239     O      0.877690000000     0.652840000000     0.707890000000    -0.544226   
O240     O      0.876580000000     0.652940000000     0.795340000000    -0.542926   
O241     O      0.127250000000     0.601050000000     0.958840000000    -0.542738   
O242     O      0.128040000000     0.600960000000     0.546290000000    -0.54288    
O243     O      0.083810000000     0.600940000000     0.002900000000    -0.543302   
O244     O      0.171470000000     0.601050000000     0.501910000000    -0.542534   
O245     O      0.171400000000     0.652720000000     0.003290000000    -0.543024   
O246     O      0.083760000000     0.652550000000     0.502340000000    -0.543774   
O247     O      0.127210000000     0.652570000000     0.546410000000    -0.544222   
O248     O      0.127950000000     0.652660000000     0.958950000000    -0.541467   
O249     O      0.127320000000     0.601080000000     0.708840000000    -0.544241   
O250     O      0.128020000000     0.600980000000     0.796290000000    -0.542905   
O251     O      0.083830000000     0.600980000000     0.752860000000    -0.543351   
O252     O      0.171490000000     0.601070000000     0.751970000000    -0.542586   
O253     O      0.171420000000     0.652740000000     0.753350000000    -0.542941   
O254     O      0.083790000000     0.652590000000     0.752300000000    -0.543819   
O255     O      0.127190000000     0.652590000000     0.796410000000    -0.544276   
O256     O      0.128020000000     0.652690000000     0.708950000000    -0.542935   
O257     O      0.600660000000     0.128360000000     0.544260000000    -0.542713   
O258     O      0.601460000000     0.127630000000     0.956810000000    -0.542623   
O259     O      0.600960000000     0.084160000000     0.500880000000    -0.543286   
O260     O      0.601140000000     0.171820000000     0.999920000000    -0.539246   
O261     O      0.652800000000     0.171710000000     0.501660000000    -0.542867   
O262     O      0.652570000000     0.084070000000     0.000630000000    -0.54382    
O263     O      0.653070000000     0.128330000000     0.957250000000    -0.541122   
O264     O      0.652260000000     0.127460000000     0.544700000000    -0.544812   
O265     O      0.601470000000     0.127860000000     0.794680000000    -0.544569   
O266     O      0.600660000000     0.128130000000     0.707230000000    -0.542515   
O267     O      0.601010000000     0.084160000000     0.750880000000    -0.543535   
O268     O      0.601110000000     0.171820000000     0.751310000000    -0.542264   
O269     O      0.652780000000     0.171730000000     0.749560000000    -0.542703   
O270     O      0.652620000000     0.084100000000     0.751140000000    -0.543854   
O271     O      0.652270000000     0.127260000000     0.706800000000    -0.544735   
O272     O      0.653080000000     0.128580000000     0.794240000000    -0.542588   
O273     O      0.600740000000     0.876870000000     0.958480000000    -0.54123    
O274     O      0.601540000000     0.877690000000     0.545920000000    -0.544572   
O275     O      0.601000000000     0.921120000000     0.001820000000    -0.543276   
O276     O      0.601270000000     0.833450000000     0.502850000000    -0.542101   
O277     O      0.652940000000     0.833640000000     0.001100000000    -0.543203   
O278     O      0.652610000000     0.921270000000     0.502080000000    -0.543837   
O279     O      0.653150000000     0.877060000000     0.545490000000    -0.542689   
O280     O      0.652340000000     0.877850000000     0.958030000000    -0.543093   
O281     O      0.601510000000     0.877670000000     0.708040000000    -0.544381   
O282     O      0.600710000000     0.877020000000     0.795490000000    -0.542756   
O283     O      0.601040000000     0.921170000000     0.752030000000    -0.543435   
O284     O      0.601160000000     0.833520000000     0.751200000000    -0.542668   
O285     O      0.652820000000     0.833600000000     0.752940000000    -0.542836   
O286     O      0.652650000000     0.921240000000     0.751780000000    -0.543691   
O287     O      0.652310000000     0.877890000000     0.795930000000    -0.544806   
O288     O      0.653120000000     0.876950000000     0.708490000000    -0.542712   
O289     O      0.377570000000     0.421290000000     0.527860000000    -0.54419    
O290     O      0.377810000000     0.333640000000     0.529050000000    -0.541782   
O291     O      0.421370000000     0.377500000000     0.527650000000    -0.544234   
O292     O      0.333730000000     0.377710000000     0.529270000000    -0.541705   
O293     O      0.332770000000     0.376480000000     0.977710000000    -0.541817   
O294     O      0.420410000000     0.376700000000     0.976160000000    -0.541674   
O295     O      0.376350000000     0.332930000000     0.977490000000    -0.541937   
O296     O      0.376530000000     0.420550000000     0.976370000000    -0.541858   
O297     O      0.377600000000     0.421130000000     0.778170000000    -0.54458    
O298     O      0.377980000000     0.333500000000     0.778810000000    -0.542105   
O299     O      0.421460000000     0.377430000000     0.777440000000    -0.544471   
O300     O      0.333830000000     0.377490000000     0.779450000000    -0.541862   
O301     O      0.332690000000     0.376590000000     0.727890000000    -0.543318   
O302     O      0.420320000000     0.376910000000     0.725950000000    -0.542642   
O303     O      0.376310000000     0.333060000000     0.727250000000    -0.542741   
O304     O      0.376400000000     0.420730000000     0.726680000000    -0.54278    
O305     O      0.377330000000     0.583480000000     0.974470000000    -0.542136   
O306     O      0.375610000000     0.671130000000     0.973420000000    -0.541388   
O307     O      0.420450000000     0.628040000000     0.973180000000    -0.541875   
O308     O      0.332770000000     0.626280000000     0.974730000000    -0.540915   
O309     O      0.333720000000     0.629030000000     0.526230000000    -0.542723   
O310     O      0.421280000000     0.627190000000     0.524670000000    -0.545515   
O311     O      0.378600000000     0.671770000000     0.524910000000    -0.54384    
O312     O      0.376730000000     0.584170000000     0.525970000000    -0.543568   
O313     O      0.377610000000     0.583580000000     0.725990000000    -0.544542   
O314     O      0.375840000000     0.671160000000     0.725120000000    -0.542549   
O315     O      0.420710000000     0.628120000000     0.725290000000    -0.542304   
O316     O      0.333030000000     0.626320000000     0.725940000000    -0.542658   
O317     O      0.333510000000     0.628950000000     0.777450000000    -0.542589   
O318     O      0.421090000000     0.627190000000     0.776790000000    -0.544715   
O319     O      0.378350000000     0.671760000000     0.776630000000    -0.542757   
O320     O      0.376560000000     0.584090000000     0.777480000000    -0.542531   
O321     O      0.584140000000     0.376890000000     0.525320000000    -0.544075   
O322     O      0.671710000000     0.378910000000     0.524330000000    -0.544175   
O323     O      0.627070000000     0.421520000000     0.524220000000    -0.545441   
O324     O      0.629050000000     0.333950000000     0.525400000000    -0.542655   
O325     O      0.626330000000     0.333240000000     0.973890000000    -0.543801   
O326     O      0.627940000000     0.420910000000     0.972730000000    -0.542094   
O327     O      0.671130000000     0.376150000000     0.972820000000    -0.541188   
O328     O      0.583440000000     0.377710000000     0.973830000000    -0.544399   
O329     O      0.583780000000     0.378050000000     0.775410000000    -0.545492   
O330     O      0.671340000000     0.376230000000     0.775600000000    -0.542842   
O331     O      0.628330000000     0.421090000000     0.775630000000    -0.543266   
O332     O      0.626470000000     0.333470000000     0.775330000000    -0.543711   
O333     O      0.628660000000     0.333710000000     0.723790000000    -0.541222   
O334     O      0.626960000000     0.421350000000     0.724140000000    -0.543639   
O335     O      0.671520000000     0.378560000000     0.724070000000    -0.542061   
O336     O      0.583810000000     0.376810000000     0.723920000000    -0.541273   
O337     O      0.627170000000     0.583730000000     0.524410000000    -0.545941   
O338     O      0.626950000000     0.671300000000     0.525920000000    -0.543289   
O339     O      0.583430000000     0.627470000000     0.524470000000    -0.546115   
O340     O      0.671000000000     0.627250000000     0.525840000000    -0.543204   
O341     O      0.671820000000     0.628610000000     0.974280000000    -0.540831   
O342     O      0.584120000000     0.628400000000     0.972990000000    -0.541935   
O343     O      0.628210000000     0.672210000000     0.974360000000    -0.540816   
O344     O      0.628030000000     0.584510000000     0.972920000000    -0.541999   
O345     O      0.626970000000     0.583870000000     0.776240000000    -0.544794   
O346     O      0.628700000000     0.671460000000     0.777100000000    -0.542204   
O347     O      0.583870000000     0.628390000000     0.776690000000    -0.5429     
O348     O      0.671510000000     0.626630000000     0.776570000000    -0.543272   
O349     O      0.671360000000     0.629230000000     0.725050000000    -0.54174    
O350     O      0.583730000000     0.627440000000     0.725200000000    -0.544282   
O351     O      0.626490000000     0.672020000000     0.725560000000    -0.542636   
O352     O      0.628300000000     0.584370000000     0.724760000000    -0.542642   
O353     O      0.127230000000     0.403630000000     0.547900000000    -0.544276   
O354     O      0.128290000000     0.403720000000     0.960450000000    -0.541015   
O355     O      0.083920000000     0.403880000000     0.503630000000    -0.543084   
O356     O      0.171590000000     0.403480000000     0.004990000000    -0.542384   
O357     O      0.171320000000     0.351810000000     0.503600000000    -0.542951   
O358     O      0.083690000000     0.352270000000     0.004210000000    -0.543898   
O359     O      0.127270000000     0.352110000000     0.960330000000    -0.542756   
O360     O      0.127750000000     0.352020000000     0.547790000000    -0.543022   
O361     O      0.127080000000     0.403630000000     0.797900000000    -0.544222   
O362     O      0.128520000000     0.403720000000     0.710450000000    -0.542651   
O363     O      0.083960000000     0.403930000000     0.753430000000    -0.542982   
O364     O      0.171630000000     0.403430000000     0.755180000000    -0.542103   
O365     O      0.171310000000     0.351760000000     0.753790000000    -0.542957   
O366     O      0.083680000000     0.352320000000     0.754000000000    -0.543919   
O367     O      0.127450000000     0.352120000000     0.710330000000    -0.544378   
O368     O      0.127550000000     0.352020000000     0.797790000000    -0.543057   
O369     O      0.877180000000     0.404550000000     0.956720000000    -0.540931   
O370     O      0.876950000000     0.403750000000     0.544170000000    -0.544368   
O371     O      0.920900000000     0.404170000000     0.000660000000    -0.543149   
O372     O      0.833230000000     0.404140000000     0.500510000000    -0.54262    
O373     O      0.833270000000     0.352480000000     0.998770000000    -0.543435   
O374     O      0.920900000000     0.352560000000     0.500920000000    -0.543655   
O375     O      0.876170000000     0.352140000000     0.543720000000    -0.542576   
O376     O      0.878000000000     0.352940000000     0.956290000000    -0.545084   
O377     O      0.877450000000     0.403710000000     0.706300000000    -0.544334   
O378     O      0.876630000000     0.404510000000     0.793750000000    -0.542665   
O379     O      0.920880000000     0.404210000000     0.750450000000    -0.542931   
O380     O      0.833200000000     0.404020000000     0.749350000000    -0.542248   
O381     O      0.833330000000     0.352360000000     0.751090000000    -0.543008   
O382     O      0.920960000000     0.352600000000     0.750190000000    -0.544003   
O383     O      0.877530000000     0.352910000000     0.794190000000    -0.544696   
O384     O      0.876750000000     0.352100000000     0.706740000000    -0.542597   
V1       V      0.405830000000     0.877070000000     0.999880000000     1.38698    
V2       V      0.350060000000     0.877140000000     0.499670000000     1.38573    
V3       V      0.405820000000     0.877060000000     0.249900000000     1.38274    
V4       V      0.350050000000     0.877150000000     0.249690000000     1.38584    
V5       V      0.405630000000     0.127760000000     0.503100000000     1.38211    
V6       V      0.349860000000     0.127560000000     0.002890000000     1.3849     
V7       V      0.405650000000     0.127750000000     0.253090000000     1.38231    
V8       V      0.349880000000     0.127570000000     0.252880000000     1.38664    
V9       V      0.876910000000     0.599220000000     0.001800000000     1.38056    
V10      V      0.877140000000     0.654990000000     0.501580000000     1.38675    
V11      V      0.876990000000     0.599200000000     0.251780000000     1.38331    
V12      V      0.877150000000     0.654970000000     0.251570000000     1.3859     
V13      V      0.127640000000     0.598930000000     0.502510000000     1.38281    
V14      V      0.127580000000     0.654700000000     0.002730000000     1.3838     
V15      V      0.127670000000     0.598950000000     0.252520000000     1.38275    
V16      V      0.127600000000     0.654720000000     0.252730000000     1.3863     
V17      V      0.598980000000     0.128000000000     0.000470000000     1.37871    
V18      V      0.654750000000     0.127880000000     0.501050000000     1.38624    
V19      V      0.598990000000     0.127990000000     0.251020000000     1.3829     
V20      V      0.654760000000     0.127910000000     0.250450000000     1.38593    
V21      V      0.599060000000     0.877280000000     0.502270000000     1.3826     
V22      V      0.654830000000     0.877460000000     0.001690000000     1.38445    
V23      V      0.599030000000     0.877340000000     0.251700000000     1.3831     
V24      V      0.654800000000     0.877420000000     0.252280000000     1.38605    
V25      V      0.377640000000     0.377540000000     0.030530000000     1.38173    
V26      V      0.376510000000     0.376670000000     0.474860000000     1.3854     
V27      V      0.377740000000     0.377380000000     0.280530000000     1.38497    
V28      V      0.376410000000     0.376840000000     0.224870000000     1.38372    
V29      V      0.376520000000     0.627230000000     0.471860000000     1.3805     
V30      V      0.377590000000     0.628040000000     0.027510000000     1.38608    
V31      V      0.376810000000     0.627310000000     0.223510000000     1.38403    
V32      V      0.377360000000     0.627990000000     0.279170000000     1.38444    
V33      V      0.627990000000     0.377810000000     0.026890000000     1.38783    
V34      V      0.627220000000     0.376990000000     0.471230000000     1.37992    
V35      V      0.627510000000     0.377230000000     0.277560000000     1.38755    
V36      V      0.627720000000     0.377580000000     0.221900000000     1.38055    
V37      V      0.627130000000     0.627430000000     0.027220000000     1.38859    
V38      V      0.628050000000     0.628440000000     0.471550000000     1.37937    
V39      V      0.627740000000     0.627600000000     0.278730000000     1.38556    
V40      V      0.627500000000     0.628260000000     0.223060000000     1.38338    
V41      V      0.127770000000     0.405750000000     0.004230000000     1.38034    
V42      V      0.127490000000     0.349980000000     0.504010000000     1.3863     
V43      V      0.127810000000     0.405760000000     0.254220000000     1.38167    
V44      V      0.127480000000     0.349990000000     0.254010000000     1.38657    
V45      V      0.877060000000     0.406230000000     0.500510000000     1.38273    
V46      V      0.877090000000     0.350460000000     0.999930000000     1.39273    
V47      V      0.877030000000     0.406190000000     0.249960000000     1.38198    
V48      V      0.877150000000     0.350420000000     0.250540000000     1.38644    
V49      V      0.405830000000     0.877070000000     0.499880000000     1.38307    
V50      V      0.350060000000     0.877140000000     0.999670000000     1.38955    
V51      V      0.405820000000     0.877060000000     0.749900000000     1.38241    
V52      V      0.350050000000     0.877150000000     0.749690000000     1.38599    
V53      V      0.405630000000     0.127760000000     0.003100000000     1.38031    
V54      V      0.349860000000     0.127560000000     0.502890000000     1.38676    
V55      V      0.405650000000     0.127750000000     0.753090000000     1.3823     
V56      V      0.349880000000     0.127570000000     0.752880000000     1.38672    
V57      V      0.876910000000     0.599220000000     0.501800000000     1.38225    
V58      V      0.877140000000     0.654990000000     0.001580000000     1.38457    
V59      V      0.876990000000     0.599200000000     0.751780000000     1.38331    
V60      V      0.877150000000     0.654970000000     0.751570000000     1.38597    
V61      V      0.127640000000     0.598930000000     0.002510000000     1.38108    
V62      V      0.127580000000     0.654700000000     0.502730000000     1.38596    
V63      V      0.127670000000     0.598950000000     0.752520000000     1.3828     
V64      V      0.127600000000     0.654720000000     0.752730000000     1.38606    
V65      V      0.598980000000     0.128000000000     0.500470000000     1.38267    
V66      V      0.654750000000     0.127880000000     0.001050000000     1.38425    
V67      V      0.598990000000     0.127990000000     0.751030000000     1.3829     
V68      V      0.654760000000     0.127910000000     0.750440000000     1.38601    
V69      V      0.599060000000     0.877280000000     0.002270000000     1.38069    
V70      V      0.654830000000     0.877460000000     0.501690000000     1.38596    
V71      V      0.599030000000     0.877340000000     0.751700000000     1.3831     
V72      V      0.654800000000     0.877420000000     0.752280000000     1.38613    
V73      V      0.377640000000     0.377540000000     0.530530000000     1.38409    
V74      V      0.376510000000     0.376670000000     0.974860000000     1.38667    
V75      V      0.377740000000     0.377380000000     0.780530000000     1.38509    
V76      V      0.376410000000     0.376840000000     0.724870000000     1.38369    
V77      V      0.376520000000     0.627230000000     0.971860000000     1.38235    
V78      V      0.377590000000     0.628040000000     0.527510000000     1.38783    
V79      V      0.376810000000     0.627310000000     0.723510000000     1.3841     
V80      V      0.377360000000     0.627990000000     0.779170000000     1.38456    
V81      V      0.627990000000     0.377810000000     0.526890000000     1.38865    
V82      V      0.627220000000     0.376990000000     0.971230000000     1.3827     
V83      V      0.627510000000     0.377230000000     0.777560000000     1.38762    
V84      V      0.627720000000     0.377580000000     0.721900000000     1.38048    
V85      V      0.627130000000     0.627430000000     0.527220000000     1.39035    
V86      V      0.628050000000     0.628440000000     0.971550000000     1.38125    
V87      V      0.627740000000     0.627600000000     0.778720000000     1.38551    
V88      V      0.627500000000     0.628260000000     0.723060000000     1.38317    
V89      V      0.127770000000     0.405750000000     0.504230000000     1.38211    
V90      V      0.127490000000     0.349980000000     0.004010000000     1.38442    
V91      V      0.127810000000     0.405760000000     0.754230000000     1.38167    
V92      V      0.127480000000     0.349990000000     0.754010000000     1.38664    
V93      V      0.877060000000     0.406230000000     0.000510000000     1.378      
V94      V      0.877090000000     0.350460000000     0.499930000000     1.38569    
V95      V      0.877030000000     0.406190000000     0.749960000000     1.38197    
V96      V      0.877150000000     0.350420000000     0.750540000000     1.38651    


