data_structure

_audit_creation_method RASPA-1.0
_audit_creation_date 2023-6-5
_audit_author_name 'Poobodin Mano'

_cell_length_a    35.5071
_cell_length_b    35.5058
_cell_length_c    21.175
_cell_angle_alpha 89.9808
_cell_angle_beta  90.0192
_cell_angle_gamma 119.98
_cell_volume      23123.6

_symmetry_cell_setting          triclinic
_symmetry_space_group_name_Hall 'P 1'
_symmetry_space_group_name_H-M  'P 1'
_symmetry_Int_Tables_number     1

_symmetry_equiv_pos_as_xyz 'x,y,z'

loop_
_atom_site_label
_atom_site_type_symbol
_atom_site_fract_x
_atom_site_fract_y
_atom_site_fract_z
_atom_site_charge
C1       C      0.860950000000     0.673700000000     0.531730000000     0.425594   
C2       C      0.819390000000     0.668940000000     0.761050000000     0.425823   
C3       C      0.761290000000     0.633550000000     0.612610000000     0.42459    
C4       C      0.919050000000     0.709100000000     0.680170000000     0.424388   
C5       C      0.194240000000     0.856390000000     0.698520000000     0.425775   
C6       C      0.152720000000     0.819610000000     0.927870000000     0.426025   
C7       C      0.094590000000     0.796880000000     0.779450000000     0.425002   
C8       C      0.252360000000     0.879110000000     0.846930000000     0.424888   
C9       C      0.486090000000     0.002370000000     0.094390000000     0.425619   
C10      C      0.527590000000     0.007070000000     0.865050000000     0.425541   
C11      C      0.585730000000     0.042510000000     0.013440000000     0.425387   
C12      C      0.427950000000     0.966930000000     0.946010000000     0.424749   
C13      C      0.152770000000     0.335730000000     0.427640000000     0.425574   
C14      C      0.194280000000     0.340450000000     0.198300000000     0.425337   
C15      C      0.252420000000     0.375860000000     0.346690000000     0.424781   
C16      C      0.094640000000     0.300320000000     0.279240000000     0.425276   
C17      C      0.819420000000     0.153030000000     0.261010000000     0.425613   
C18      C      0.860940000000     0.189810000000     0.031670000000     0.42621    
C19      C      0.919070000000     0.212540000000     0.180090000000     0.424816   
C20      C      0.761300000000     0.130310000000     0.112600000000     0.424868   
C21      C      0.527640000000     0.523100000000     0.364880000000     0.425791   
C22      C      0.486110000000     0.486300000000     0.594220000000     0.425495   
C23      C      0.427990000000     0.463610000000     0.445810000000     0.424817   
C24      C      0.585760000000     0.545800000000     0.513300000000     0.424855   
C25      C      0.155150000000     0.340480000000     0.698290000000     0.425759   
C26      C      0.191960000000     0.335720000000     0.927650000000     0.426003   
C27      C      0.214680000000     0.300330000000     0.779260000000     0.424724   
C28      C      0.132430000000     0.375870000000     0.846690000000     0.42512    
C29      C      0.342610000000     0.153010000000     0.761110000000     0.42569    
C30      C      0.337870000000     0.189830000000     0.531740000000     0.42574    
C31      C      0.302470000000     0.212550000000     0.680120000000     0.424968   
C32      C      0.378010000000     0.130290000000     0.612730000000     0.424883   
C33      C      0.004470000000     0.523100000000     0.865120000000     0.426026   
C34      C      0.009240000000     0.486290000000     0.094480000000     0.42604    
C35      C      0.044650000000     0.463590000000     0.946070000000     0.424776   
C36      C      0.969060000000     0.545800000000     0.013520000000     0.424797   
C37      C      0.671050000000     0.856410000000     0.198180000000     0.425663   
C38      C      0.675810000000     0.819600000000     0.427530000000     0.425693   
C39      C      0.711200000000     0.796870000000     0.279150000000     0.424969   
C40      C      0.635660000000     0.879130000000     0.346570000000     0.424958   
C41      C      0.858530000000     0.668950000000     0.261080000000     0.425647   
C42      C      0.821730000000     0.673680000000     0.031700000000     0.426093   
C43      C      0.798990000000     0.709090000000     0.180060000000     0.424919   
C44      C      0.881260000000     0.633540000000     0.112710000000     0.424907   
C45      C      0.488440000000     0.007100000000     0.365040000000     0.425676   
C46      C      0.525260000000     0.002310000000     0.594390000000     0.425648   
C47      C      0.547950000000     0.966910000000     0.445980000000     0.42489    
C48      C      0.465750000000     0.042500000000     0.513450000000     0.4252     
C49      C      0.337870000000     0.150610000000     0.031770000000     0.426195   
C50      C      0.342620000000     0.192170000000     0.261090000000     0.42539    
C51      C      0.378010000000     0.250270000000     0.112660000000     0.424817   
C52      C      0.302470000000     0.092510000000     0.180200000000     0.424813   
C53      C      0.525250000000     0.525440000000     0.094220000000     0.425537   
C54      C      0.488450000000     0.483900000000     0.864880000000     0.42551    
C55      C      0.465760000000     0.425790000000     0.013320000000     0.425317   
C56      C      0.547940000000     0.583560000000     0.945790000000     0.424718   
C57      C      0.155160000000     0.817310000000     0.198520000000     0.425633   
C58      C      0.191950000000     0.858830000000     0.427870000000     0.425647   
C59      C      0.214680000000     0.916960000000     0.279450000000     0.424834   
C60      C      0.132440000000     0.759190000000     0.346940000000     0.424935   
C61      C      0.009210000000     0.525480000000     0.594470000000     0.426086   
C62      C      0.004500000000     0.483970000000     0.365130000000     0.426356   
C63      C      0.969060000000     0.425840000000     0.513510000000     0.424335   
C64      C      0.044640000000     0.583620000000     0.446080000000     0.424849   
C65      C      0.858520000000     0.192120000000     0.761020000000     0.425671   
C66      C      0.821740000000     0.150630000000     0.531660000000     0.425534   
C67      C      0.799010000000     0.092480000000     0.680060000000     0.424891   
C68      C      0.881250000000     0.250260000000     0.612620000000     0.425025   
C69      C      0.675800000000     0.858750000000     0.927520000000     0.426004   
C70      C      0.671080000000     0.817240000000     0.698190000000     0.425559   
C71      C      0.635670000000     0.759100000000     0.846580000000     0.425053   
C72      C      0.711210000000     0.916890000000     0.779130000000     0.424927   
C73      C      0.778300000000     0.983680000000     0.742150000000    -0.000808225
C74      C      0.733450000000     0.962090000000     0.754850000000    -0.105812   
C75      C      0.710080000000     0.983600000000     0.741960000000     0.000265065
C76      C      0.731180000000     0.025800000000     0.717170000000     0.000291214
C77      C      0.776040000000     0.047270000000     0.704340000000    -0.10573    
C78      C      0.799280000000     0.025650000000     0.717070000000    -0.000782177
C79      C      0.970180000000     0.359130000000     0.550700000000    -0.000466798
C80      C      0.946820000000     0.380640000000     0.537810000000    -0.105394   
C81      C      0.901960000000     0.359050000000     0.550500000000    -0.00105475 
C82      C      0.880980000000     0.317080000000     0.575590000000    -0.000594562
C83      C      0.904220000000     0.295460000000     0.588330000000    -0.105995   
C84      C      0.949080000000     0.316930000000     0.575500000000     0.000567347
C85      C      0.111740000000     0.650410000000     0.409090000000    -0.000879911
C86      C      0.066880000000     0.628820000000     0.421790000000    -0.10565    
C87      C      0.043520000000     0.650330000000     0.408900000000     0.000296195
C88      C      0.064620000000     0.692520000000     0.384080000000     0.000355746
C89      C      0.109480000000     0.713990000000     0.371240000000    -0.105784   
C90      C      0.132720000000     0.692380000000     0.383990000000    -0.000675495
C91      C      0.615740000000     0.650230000000     0.908610000000     0.000270902
C92      C      0.570890000000     0.628750000000     0.921470000000    -0.105779   
C93      C      0.547630000000     0.650350000000     0.908710000000    -0.000847599
C94      C      0.568600000000     0.692310000000     0.883590000000    -0.000710192
C95      C      0.613440000000     0.713910000000     0.870880000000    -0.105939   
C96      C      0.636830000000     0.692420000000     0.883780000000     0.000313946
C97      C      0.235380000000     0.025730000000     0.217240000000    -0.000782561
C98      C      0.280230000000     0.047310000000     0.204530000000    -0.105657   
C99      C      0.303590000000     0.025810000000     0.217430000000     0.000381362
C100     C      0.282500000000     0.983630000000     0.242270000000     0.000254844
C101     C      0.237640000000     0.962160000000     0.255130000000    -0.105669   
C102     C      0.214400000000     0.983770000000     0.242370000000    -0.000756006
C103     C      0.445090000000     0.317040000000     0.075580000000    -0.000820878
C104     C      0.400250000000     0.295460000000     0.088310000000    -0.105627   
C105     C      0.376870000000     0.316950000000     0.075400000000     0.000302772
C106     C      0.397950000000     0.359130000000     0.050530000000     0.000351569
C107     C      0.442810000000     0.380600000000     0.037660000000    -0.105805   
C108     C      0.466060000000     0.359000000000     0.050430000000    -0.000628355
C109     C      0.634720000000     0.790900000000     0.528310000000    -6.156e-06  
C110     C      0.674720000000     0.812270000000     0.496320000000    -0.106508   
C111     C      0.713440000000     0.830700000000     0.531450000000     0.000325421
C112     C      0.712180000000     0.829620000000     0.597430000000    -9.27016e-05
C113     C      0.672170000000     0.811000000000     0.629410000000    -0.10643    
C114     C      0.633450000000     0.790730000000     0.594280000000     0.000249184
C115     C      0.633420000000     0.845290000000     0.094250000000    -0.00012864 
C116     C      0.672140000000     0.863730000000     0.129390000000    -0.106149   
C117     C      0.712150000000     0.885100000000     0.097410000000    -0.000483789
C118     C      0.713420000000     0.885270000000     0.031430000000     0.00127552 
C119     C      0.674700000000     0.864990000000     0.996300000000    -0.107811   
C120     C      0.634690000000     0.846370000000     0.028280000000     0.000936918
C121     C      0.710070000000     0.729050000000     0.242010000000     0.000334707
C122     C      0.733440000000     0.773910000000     0.254860000000    -0.105804   
C123     C      0.778280000000     0.797160000000     0.242140000000    -0.000741457
C124     C      0.799270000000     0.776170000000     0.217050000000    -0.0007848  
C125     C      0.776020000000     0.731320000000     0.204340000000    -0.105772   
C126     C      0.731170000000     0.707950000000     0.217200000000     0.000339455
C127     C      0.568600000000     0.878850000000     0.383680000000    -0.000734739
C128     C      0.613440000000     0.902090000000     0.370920000000    -0.10585    
C129     C      0.636820000000     0.946940000000     0.383820000000     0.000358073
C130     C      0.615740000000     0.968040000000     0.408710000000     0.000261752
C131     C      0.570890000000     0.944670000000     0.421620000000    -0.105786   
C132     C      0.547630000000     0.899830000000     0.408860000000    -0.000790278
C133     C      0.966840000000     0.511990000000     0.761200000000    -4.81545e-05
C134     C      0.005560000000     0.530430000000     0.796340000000    -0.106209   
C135     C      0.045560000000     0.551810000000     0.764350000000    -3.03423e-05
C136     C      0.046830000000     0.551990000000     0.698380000000     0.000283842
C137     C      0.008110000000     0.531720000000     0.663240000000    -0.106176   
C138     C      0.968100000000     0.513080000000     0.695220000000    -0.000456047
C139     C      0.046870000000     0.497410000000     0.198400000000     0.000248944
C140     C      0.008150000000     0.478970000000     0.163260000000    -0.106092   
C141     C      0.968140000000     0.457610000000     0.195250000000    -0.000515017
C142     C      0.966880000000     0.457450000000     0.261220000000     9.61837e-05
C143     C      0.005590000000     0.477730000000     0.296360000000    -0.106359   
C144     C      0.045600000000     0.496340000000     0.264380000000     5.09556e-05
C145     C      0.970180000000     0.613610000000     0.050700000000    -0.000355884
C146     C      0.946820000000     0.568750000000     0.037830000000    -0.10557    
C147     C      0.901980000000     0.545490000000     0.050570000000    -0.000825341
C148     C      0.880990000000     0.566460000000     0.075690000000    -0.000691002
C149     C      0.904230000000     0.611310000000     0.088420000000    -0.105879   
C150     C      0.949080000000     0.634690000000     0.075540000000     0.000585425
C151     C      0.380240000000     0.164100000000     0.865030000000     0.00014527 
C152     C      0.341520000000     0.145680000000     0.829900000000    -0.106419   
C153     C      0.301510000000     0.124300000000     0.861880000000    -0.00020222 
C154     C      0.300240000000     0.124110000000     0.927850000000     0.000477992
C155     C      0.338960000000     0.144380000000     0.962990000000    -0.107098   
C156     C      0.378970000000     0.163010000000     0.931010000000     0.000113763
C157     C      0.300250000000     0.178730000000     0.427820000000     0.000355838
C158     C      0.338970000000     0.197150000000     0.462960000000    -0.106588   
C159     C      0.378980000000     0.218510000000     0.430980000000    -2.69465e-05
C160     C      0.380240000000     0.218680000000     0.365000000000     0.000290848
C161     C      0.341530000000     0.198410000000     0.329860000000    -0.10643    
C162     C      0.301520000000     0.179810000000     0.361850000000    -9.07308e-05
C163     C      0.445090000000     0.130570000000     0.575680000000    -0.000894199
C164     C      0.400240000000     0.107320000000     0.588410000000    -0.105682   
C165     C      0.376860000000     0.062470000000     0.575520000000     0.000234632
C166     C      0.397950000000     0.041380000000     0.550670000000     0.00042262 
C167     C      0.442800000000     0.064740000000     0.537780000000    -0.105934   
C168     C      0.466050000000     0.109580000000     0.550540000000    -0.000642141
C169     C      0.132710000000     0.442940000000     0.883800000000    -0.000802523
C170     C      0.109460000000     0.398090000000     0.871040000000    -0.105841   
C171     C      0.064620000000     0.374710000000     0.883940000000     0.000376932
C172     C      0.043520000000     0.395790000000     0.908820000000     0.000245904
C173     C      0.066890000000     0.440640000000     0.921720000000    -0.105725   
C174     C      0.111730000000     0.463900000000     0.908970000000    -0.000800285
C175     C      0.303600000000     0.280370000000     0.717280000000     0.000329107
C176     C      0.280230000000     0.235510000000     0.704410000000    -0.105836   
C177     C      0.235380000000     0.212270000000     0.717130000000    -0.000714939
C178     C      0.214400000000     0.233250000000     0.742230000000    -0.000865019
C179     C      0.237650000000     0.278090000000     0.754960000000    -0.10564    
C180     C      0.282500000000     0.301460000000     0.742100000000     0.000241499
C181     C      0.498500000000     0.457580000000     0.695020000000    -5.77394e-05
C182     C      0.479870000000     0.478970000000     0.663000000000    -0.106458   
C183     C      0.459590000000     0.497420000000     0.698110000000     0.000282065
C184     C      0.459760000000     0.496320000000     0.764080000000    -5.07098e-05
C185     C      0.481130000000     0.477670000000     0.796100000000    -0.106495   
C186     C      0.499580000000     0.457390000000     0.760990000000     0.000272266
C187     C      0.554150000000     0.511980000000     0.260990000000     0.000429044
C188     C      0.533870000000     0.530420000000     0.296100000000    -0.106593   
C189     C      0.515220000000     0.551800000000     0.264080000000    -3.30309e-05
C190     C      0.514130000000     0.551970000000     0.198100000000     0.000303201
C191     C      0.532580000000     0.531690000000     0.163000000000    -0.106405   
C192     C      0.553970000000     0.513060000000     0.195020000000    -0.00012012 
C193     C      0.848510000000     0.218490000000     0.930870000000     0.000135788
C194     C      0.867160000000     0.197130000000     0.962890000000    -0.107165   
C195     C      0.887450000000     0.178680000000     0.927790000000     0.000440924
C196     C      0.887250000000     0.179750000000     0.861810000000    -0.000177254
C197     C      0.865850000000     0.198370000000     0.829790000000    -0.106551   
C198     C      0.847410000000     0.218660000000     0.864900000000     0.000179984
C199     C      0.792890000000     0.164160000000     0.364890000000     0.000265538
C200     C      0.813170000000     0.145700000000     0.329790000000    -0.106472   
C201     C      0.831790000000     0.124300000000     0.361810000000    -8.72001e-05
C202     C      0.832860000000     0.124110000000     0.427780000000     0.000326101
C203     C      0.814420000000     0.144400000000     0.462880000000    -0.106517   
C204     C      0.793060000000     0.163060000000     0.430860000000    -5.28065e-05
C205     C      0.126450000000     0.299380000000     0.597530000000    -9.96494e-06
C206     C      0.147820000000     0.339390000000     0.629510000000    -0.106562   
C207     C      0.166260000000     0.378110000000     0.594370000000     0.000352755
C208     C      0.165170000000     0.376840000000     0.528400000000    -7.11047e-05
C209     C      0.146540000000     0.336830000000     0.496410000000    -0.106479   
C210     C      0.126260000000     0.298110000000     0.531550000000     0.000308382
C211     C      0.180850000000     0.298090000000     0.031570000000     0.00136162 
C212     C      0.199280000000     0.336810000000     0.996440000000    -0.107865   
C213     C      0.220640000000     0.376810000000     0.028420000000     0.00100921 
C214     C      0.220810000000     0.378080000000     0.094400000000    -0.000170462
C215     C      0.200530000000     0.339360000000     0.129530000000    -0.106043   
C216     C      0.181920000000     0.299350000000     0.097550000000    -0.000528357
C217     C      0.985750000000     0.280360000000     0.217230000000    -0.000481732
C218     C      0.964270000000     0.235500000000     0.204390000000    -0.105344   
C219     C      0.985880000000     0.212250000000     0.217140000000    -0.00159692 
C220     C      0.027840000000     0.233230000000     0.242240000000     6.05954e-05
C221     C      0.049430000000     0.278080000000     0.254940000000    -0.106152   
C222     C      0.027940000000     0.301460000000     0.242040000000     0.00111439 
C223     C      0.319220000000     0.442940000000     0.383680000000    -0.00079609 
C224     C      0.297620000000     0.398090000000     0.370980000000    -0.105716   
C225     C      0.319110000000     0.374710000000     0.383860000000     0.000282928
C226     C      0.361310000000     0.395800000000     0.408670000000     0.000323155
C227     C      0.382790000000     0.440650000000     0.421510000000    -0.105747   
C228     C      0.361190000000     0.463910000000     0.408770000000    -0.000774741
C229     C      0.554110000000     0.044690000000     0.761140000000     0.0002965  
C230     C      0.533830000000     0.005970000000     0.796280000000    -0.106496   
C231     C      0.515210000000     0.965960000000     0.764300000000    -8.00496e-05
C232     C      0.514140000000     0.964690000000     0.698320000000     0.000268095
C233     C      0.532580000000     0.003410000000     0.663180000000    -0.106467   
C234     C      0.553940000000     0.043420000000     0.695160000000    -7.22794e-05
C235     C      0.459570000000     0.964740000000     0.198300000000     0.000271333
C236     C      0.479850000000     0.003460000000     0.163160000000    -0.106434   
C237     C      0.498480000000     0.043470000000     0.195150000000    -0.000103852
C238     C      0.499560000000     0.044730000000     0.261120000000     0.00037027 
C239     C      0.481110000000     0.006010000000     0.296260000000    -0.106553   
C240     C      0.459740000000     0.966010000000     0.264270000000     3.40149e-06
C241     C      0.652440000000     0.041380000000     0.050640000000     0.000355948
C242     C      0.630930000000     0.064750000000     0.037740000000    -0.105798   
C243     C      0.652520000000     0.109600000000     0.050430000000    -0.000657336
C244     C      0.694480000000     0.130590000000     0.075530000000    -0.000804565
C245     C      0.716100000000     0.107350000000     0.088290000000    -0.105646   
C246     C      0.694630000000     0.062490000000     0.075450000000     0.000303551
C247     C      0.220770000000     0.845280000000     0.594640000000     0.0003493  
C248     C      0.200490000000     0.863730000000     0.629750000000    -0.106576   
C249     C      0.181880000000     0.885140000000     0.597720000000    -4.47488e-05
C250     C      0.180820000000     0.885340000000     0.531750000000     0.00034927 
C251     C      0.199260000000     0.865050000000     0.496650000000    -0.106542   
C252     C      0.220620000000     0.846390000000     0.528670000000    -5.31664e-05
C253     C      0.126210000000     0.830740000000     0.031750000000     0.00124827 
C254     C      0.146500000000     0.812290000000     0.996650000000    -0.107823   
C255     C      0.165160000000     0.790930000000     0.028670000000     0.000915459
C256     C      0.166270000000     0.790780000000     0.094640000000    -2.75893e-05
C257     C      0.147820000000     0.811060000000     0.129750000000    -0.106227   
C258     C      0.126420000000     0.829670000000     0.097730000000    -0.000356268
C259     C      0.319040000000     0.946940000000     0.884050000000     0.000372317
C260     C      0.297560000000     0.902080000000     0.871220000000    -0.105831   
C261     C      0.319180000000     0.878840000000     0.883960000000    -0.000760914
C262     C      0.361150000000     0.899830000000     0.909040000000    -0.000874791
C263     C      0.382740000000     0.944680000000     0.921730000000    -0.105658   
C264     C      0.361230000000     0.968050000000     0.908840000000     0.000134336
C265     C      0.831740000000     0.710030000000     0.861810000000    -0.000154137
C266     C      0.813140000000     0.670030000000     0.829830000000    -0.106499   
C267     C      0.792880000000     0.631300000000     0.864960000000     0.00014528 
C268     C      0.793050000000     0.632570000000     0.930940000000     0.000112964
C269     C      0.814400000000     0.672580000000     0.962920000000    -0.107114   
C270     C      0.832820000000     0.711300000000     0.927780000000     0.000451975
C271     C      0.848550000000     0.632600000000     0.430970000000    -4.58435e-05
C272     C      0.867180000000     0.672600000000     0.462950000000    -0.10651    
C273     C      0.887440000000     0.711320000000     0.427810000000     0.00024614 
C274     C      0.887240000000     0.710050000000     0.361840000000    -1.94424e-05
C275     C      0.865870000000     0.670050000000     0.329860000000    -0.106576   
C276     C      0.847450000000     0.631330000000     0.365000000000     0.00029188 
C277     C      0.652430000000     0.613600000000     0.550510000000     0.000285426
C278     C      0.630960000000     0.568750000000     0.537640000000    -0.105652   
C279     C      0.652560000000     0.545490000000     0.550390000000    -0.000839052
C280     C      0.694520000000     0.566470000000     0.575540000000    -0.00078024 
C281     C      0.716100000000     0.611310000000     0.588270000000    -0.10565    
C282     C      0.694610000000     0.634690000000     0.575370000000     0.000262995
C283     C      0.985820000000     0.776180000000     0.717230000000    -0.00173983 
C284     C      0.964240000000     0.731330000000     0.704510000000    -0.105177   
C285     C      0.985740000000     0.707960000000     0.717410000000    -0.000622433
C286     C      0.027930000000     0.729060000000     0.742260000000     0.00114103 
C287     C      0.049390000000     0.773910000000     0.755120000000    -0.106152   
C288     C      0.027780000000     0.797160000000     0.742360000000     6.56227e-05
H1       H      0.797320000000     0.968070000000     0.751120000000     0.037362   
H2       H      0.675470000000     0.967880000000     0.751010000000     0.0407911  
H3       H      0.712300000000     0.041540000000     0.708090000000     0.0407964  
H4       H      0.833900000000     0.041240000000     0.708140000000     0.0373734  
H5       H      0.004790000000     0.374840000000     0.541650000000     0.0412674  
H6       H      0.882950000000     0.374670000000     0.541520000000     0.0374683  
H7       H      0.846360000000     0.301500000000     0.584520000000     0.0373477  
H8       H      0.967950000000     0.301190000000     0.584580000000     0.0406166  
H9       H      0.130750000000     0.634800000000     0.418070000000     0.0374581  
H10      H      0.008910000000     0.634610000000     0.417940000000     0.0409319  
H11      H      0.045740000000     0.708260000000     0.375000000000     0.0408739  
H12      H      0.167340000000     0.707960000000     0.375060000000     0.0374005  
H13      H      0.634630000000     0.634500000000     0.917700000000     0.0407636  
H14      H      0.513010000000     0.634760000000     0.917660000000     0.037368   
H15      H      0.549570000000     0.707910000000     0.874620000000     0.0373451  
H16      H      0.671440000000     0.708140000000     0.874720000000     0.0407573  
H17      H      0.216360000000     0.041340000000     0.208260000000     0.0374815  
H18      H      0.338210000000     0.041520000000     0.208370000000     0.0408239  
H19      H      0.301380000000     0.967880000000     0.251360000000     0.0408453  
H20      H      0.179780000000     0.968200000000     0.251320000000     0.0374454  
H21      H      0.464120000000     0.301450000000     0.084570000000     0.0374881  
H22      H      0.342260000000     0.301240000000     0.084470000000     0.0408693  
H23      H      0.379070000000     0.374860000000     0.041430000000     0.0408804  
H24      H      0.500680000000     0.374580000000     0.041470000000     0.0374964  
H25      H      0.604330000000     0.776560000000     0.502450000000     0.0359199  
H26      H      0.744720000000     0.847240000000     0.507980000000     0.0359233  
H27      H      0.742570000000     0.845670000000     0.623280000000     0.0359178  
H28      H      0.602180000000     0.775990000000     0.617760000000     0.035966   
H29      H      0.602150000000     0.828760000000     0.117730000000     0.036113   
H30      H      0.742530000000     0.899430000000     0.123260000000     0.0360705  
H31      H      0.744690000000     0.900000000000     0.007960000000     0.0358684  
H32      H      0.604310000000     0.830330000000     0.002420000000     0.0358774  
H33      H      0.675460000000     0.710170000000     0.251080000000     0.0408252  
H34      H      0.797300000000     0.831770000000     0.251080000000     0.0374     
H35      H      0.833880000000     0.795190000000     0.208090000000     0.0374191  
H36      H      0.712300000000     0.673340000000     0.208150000000     0.040849   
H37      H      0.549570000000     0.844240000000     0.374700000000     0.0374073  
H38      H      0.671420000000     0.965820000000     0.374730000000     0.0407931  
H39      H      0.634630000000     0.002640000000     0.417810000000     0.0408332  
H40      H      0.513020000000     0.880820000000     0.417840000000     0.0374201  
H41      H      0.935560000000     0.495450000000     0.784680000000     0.0359398  
H42      H      0.075950000000     0.566160000000     0.790200000000     0.0359217  
H43      H      0.078110000000     0.566740000000     0.674900000000     0.0359559  
H44      H      0.937720000000     0.497040000000     0.669370000000     0.0359613  
H45      H      0.078150000000     0.513940000000     0.174930000000     0.036026   
H46      H      0.937760000000     0.443280000000     0.169390000000     0.0360274  
H47      H      0.935590000000     0.442730000000     0.284690000000     0.0359427  
H48      H      0.075990000000     0.512380000000     0.290230000000     0.0359247  
H49      H      0.004790000000     0.632490000000     0.041620000000     0.041315   
H50      H      0.882960000000     0.510880000000     0.041610000000     0.037536   
H51      H      0.846380000000     0.547440000000     0.084660000000     0.0374485  
H52      H      0.967950000000     0.669300000000     0.084600000000     0.0406744  
H53      H      0.411510000000     0.180640000000     0.841560000000     0.0359474  
H54      H      0.271130000000     0.109970000000     0.836030000000     0.0359541  
H55      H      0.268970000000     0.109380000000     0.951330000000     0.0357879  
H56      H      0.409350000000     0.179040000000     0.956860000000     0.0357416  
H57      H      0.268970000000     0.162210000000     0.451300000000     0.035946   
H58      H      0.409360000000     0.232830000000     0.456830000000     0.0359262  
H59      H      0.411520000000     0.233400000000     0.341530000000     0.0359598  
H60      H      0.271130000000     0.163780000000     0.336000000000     0.0359721  
H61      H      0.464110000000     0.165180000000     0.584660000000     0.0374323  
H62      H      0.342250000000     0.043600000000     0.584600000000     0.0408321  
H63      H      0.379060000000     0.006770000000     0.541580000000     0.0407825  
H64      H      0.500670000000     0.128600000000     0.541580000000     0.0373728  
H65      H      0.167320000000     0.461960000000     0.874820000000     0.0373727  
H66      H      0.045740000000     0.340110000000     0.874850000000     0.0408296  
H67      H      0.008920000000     0.376910000000     0.917910000000     0.0408769  
H68      H      0.130750000000     0.498520000000     0.917940000000     0.037358   
H69      H      0.338210000000     0.299250000000     0.708220000000     0.0407838  
H70      H      0.216360000000     0.177650000000     0.708160000000     0.0374015  
H71      H      0.179790000000     0.214230000000     0.751180000000     0.0374424  
H72      H      0.301380000000     0.336070000000     0.751180000000     0.0407961  
H73      H      0.514550000000     0.443230000000     0.669190000000     0.0359254  
H74      H      0.444850000000     0.513970000000     0.674610000000     0.0359476  
H75      H      0.445410000000     0.512370000000     0.789910000000     0.0359131  
H76      H      0.516110000000     0.442640000000     0.784490000000     0.0359307  
H77      H      0.568910000000     0.495440000000     0.284490000000     0.0359261  
H78      H      0.499170000000     0.566140000000     0.289910000000     0.0359417  
H79      H      0.497580000000     0.566710000000     0.174600000000     0.0360089  
H80      H      0.568320000000     0.497010000000     0.169190000000     0.0359915  
H81      H      0.832460000000     0.232840000000     0.956690000000     0.0357176  
H82      H      0.902200000000     0.162140000000     0.951290000000     0.0357119  
H83      H      0.901600000000     0.163700000000     0.835990000000     0.0358757  
H84      H      0.830850000000     0.233390000000     0.841390000000     0.0359179  
H85      H      0.778170000000     0.180720000000     0.341380000000     0.035973   
H86      H      0.847830000000     0.109940000000     0.335980000000     0.0359201  
H87      H      0.849390000000     0.109350000000     0.451290000000     0.0359165  
H88      H      0.778720000000     0.179110000000     0.456690000000     0.0359284  
H89      H      0.112110000000     0.269000000000     0.623380000000     0.0359701  
H90      H      0.182800000000     0.409390000000     0.617850000000     0.0359339  
H91      H      0.181210000000     0.407220000000     0.502540000000     0.0359457  
H92      H      0.111530000000     0.266830000000     0.508080000000     0.0359988  
H93      H      0.164320000000     0.266810000000     0.008090000000     0.0358916  
H94      H      0.234980000000     0.407200000000     0.002570000000     0.035854   
H95      H      0.235530000000     0.409360000000     0.117870000000     0.0361307  
H96      H      0.165880000000     0.268960000000     0.123390000000     0.0361264  
H97      H      0.970010000000     0.299250000000     0.208140000000     0.0409227  
H98      H      0.970290000000     0.177630000000     0.208210000000     0.0375382  
H99      H      0.043450000000     0.214210000000     0.251220000000     0.037326   
H100     H      0.043660000000     0.336070000000     0.251090000000     0.0407189  
H101     H      0.303620000000     0.461970000000     0.374720000000     0.0374221  
H102     H      0.303390000000     0.340100000000     0.374810000000     0.0408246  
H103     H      0.377040000000     0.376910000000     0.417740000000     0.0408067  
H104     H      0.376780000000     0.498530000000     0.417710000000     0.0374108  
H105     H      0.568840000000     0.075970000000     0.784610000000     0.0359146  
H106     H      0.499170000000     0.935580000000     0.790150000000     0.03592    
H107     H      0.497610000000     0.933410000000     0.674850000000     0.0359349  
H108     H      0.568280000000     0.073800000000     0.669310000000     0.0359387  
H109     H      0.444830000000     0.933460000000     0.174820000000     0.0360131  
H110     H      0.514520000000     0.073850000000     0.169300000000     0.0359872  
H111     H      0.516090000000     0.076010000000     0.284600000000     0.0359368  
H112     H      0.445400000000     0.935620000000     0.290120000000     0.0359304  
H113     H      0.636720000000     0.006770000000     0.041600000000     0.0408859  
H114     H      0.636910000000     0.128620000000     0.041450000000     0.0375058  
H115     H      0.710070000000     0.165210000000     0.084460000000     0.0374845  
H116     H      0.710370000000     0.043610000000     0.084550000000     0.0408629  
H117     H      0.235500000000     0.828720000000     0.618150000000     0.035939   
H118     H      0.165840000000     0.899490000000     0.623550000000     0.0359656  
H119     H      0.164300000000     0.900110000000     0.508240000000     0.0359602  
H120     H      0.234960000000     0.830330000000     0.502850000000     0.0359266  
H121     H      0.111450000000     0.847260000000     0.008250000000     0.0359365  
H122     H      0.181210000000     0.776590000000     0.002840000000     0.0358825  
H123     H      0.182840000000     0.776050000000     0.118140000000     0.0360952  
H124     H      0.112070000000     0.845720000000     0.123550000000     0.0361054  
H125     H      0.303290000000     0.965820000000     0.874970000000     0.0407494  
H126     H      0.303600000000     0.844220000000     0.875030000000     0.0373606  
H127     H      0.376760000000     0.880810000000     0.918010000000     0.037378   
H128     H      0.376950000000     0.002660000000     0.917880000000     0.0408151  
H129     H      0.847760000000     0.740420000000     0.835960000000     0.0358889  
H130     H      0.778170000000     0.600030000000     0.841490000000     0.035948   
H131     H      0.778730000000     0.602190000000     0.956790000000     0.0357436  
H132     H      0.849330000000     0.742580000000     0.951260000000     0.0357292  
H133     H      0.832520000000     0.602210000000     0.456830000000     0.035916   
H134     H      0.902170000000     0.742600000000     0.451290000000     0.035909   
H135     H      0.901570000000     0.740440000000     0.335990000000     0.0358739  
H136     H      0.830910000000     0.600050000000     0.341520000000     0.0359367  
H137     H      0.636700000000     0.632490000000     0.541420000000     0.0408159  
H138     H      0.636980000000     0.510880000000     0.541430000000     0.037423   
H139     H      0.710120000000     0.547440000000     0.584520000000     0.0374042  
H140     H      0.710320000000     0.669300000000     0.584440000000     0.0408164  
H141     H      0.970220000000     0.795200000000     0.708250000000     0.0375294  
H142     H      0.970030000000     0.673350000000     0.708340000000     0.0409187  
H143     H      0.043670000000     0.710180000000     0.751350000000     0.0406668  
H144     H      0.043360000000     0.831780000000     0.751310000000     0.0372734  
O1       O      0.854060000000     0.640910000000     0.565680000000    -0.543649   
O2       O      0.821940000000     0.636970000000     0.737550000000    -0.5432     
O3       O      0.778950000000     0.610760000000     0.627050000000    -0.545147   
O4       O      0.897620000000     0.667420000000     0.676330000000    -0.540882   
O5       O      0.901390000000     0.731880000000     0.665730000000    -0.545234   
O6       O      0.782720000000     0.675220000000     0.616450000000    -0.540994   
O7       O      0.826280000000     0.701720000000     0.727100000000    -0.543818   
O8       O      0.858400000000     0.705670000000     0.555230000000    -0.54316    
O9       O      0.191710000000     0.821880000000     0.722050000000    -0.543151   
O10      O      0.159630000000     0.793730000000     0.893940000000    -0.543985   
O11      O      0.116050000000     0.776660000000     0.783310000000    -0.541169   
O12      O      0.234730000000     0.838680000000     0.832540000000    -0.545263   
O13      O      0.230900000000     0.899330000000     0.843070000000    -0.541175   
O14      O      0.112220000000     0.837310000000     0.793840000000    -0.545252   
O15      O      0.155240000000     0.854120000000     0.904330000000    -0.543247   
O16      O      0.187320000000     0.882270000000     0.732440000000    -0.543787   
O17      O      0.488640000000     0.970390000000     0.070900000000    -0.54265    
O18      O      0.520710000000     0.974290000000     0.899020000000    -0.543628   
O19      O      0.564300000000     0.000830000000     0.009630000000    -0.54077    
O20      O      0.445610000000     0.944150000000     0.960440000000    -0.545139   
O21      O      0.449380000000     0.008600000000     0.949820000000    -0.541178   
O22      O      0.568070000000     0.065280000000     0.999010000000    -0.545798   
O23      O      0.525030000000     0.039040000000     0.888540000000    -0.543091   
O24      O      0.492970000000     0.035140000000     0.060420000000    -0.543481   
O25      O      0.155320000000     0.303750000000     0.404140000000    -0.543028   
O26      O      0.187390000000     0.307660000000     0.232260000000    -0.543584   
O27      O      0.230970000000     0.334180000000     0.342880000000    -0.541025   
O28      O      0.112290000000     0.277540000000     0.293670000000    -0.545463   
O29      O      0.116080000000     0.341990000000     0.283060000000    -0.541246   
O30      O      0.234760000000     0.398640000000     0.332270000000    -0.54527    
O31      O      0.191740000000     0.372430000000     0.221800000000    -0.54306    
O32      O      0.159660000000     0.368510000000     0.393680000000    -0.543659   
O33      O      0.826330000000     0.127150000000     0.227090000000    -0.543841   
O34      O      0.858410000000     0.155300000000     0.055210000000    -0.543276   
O35      O      0.901430000000     0.172110000000     0.165700000000    -0.54537    
O36      O      0.782760000000     0.110090000000     0.116460000000    -0.541137   
O37      O      0.778930000000     0.170740000000     0.126990000000    -0.545172   
O38      O      0.897610000000     0.232760000000     0.176220000000    -0.541103   
O39      O      0.854030000000     0.215700000000     0.065590000000    -0.543737   
O40      O      0.821950000000     0.187550000000     0.237480000000    -0.543027   
O41      O      0.525110000000     0.488580000000     0.388410000000    -0.543103   
O42      O      0.493020000000     0.460420000000     0.560300000000    -0.54371    
O43      O      0.449450000000     0.443380000000     0.449660000000    -0.541154   
O44      O      0.568120000000     0.505370000000     0.498900000000    -0.545221   
O45      O      0.564310000000     0.566030000000     0.509440000000    -0.541273   
O46      O      0.445640000000     0.504040000000     0.460200000000    -0.54527    
O47      O      0.488650000000     0.520830000000     0.570690000000    -0.543043   
O48      O      0.520740000000     0.548980000000     0.398810000000    -0.543919   
O49      O      0.189660000000     0.372450000000     0.721810000000    -0.543186   
O50      O      0.217830000000     0.368500000000     0.893710000000    -0.544005   
O51      O      0.234890000000     0.342000000000     0.783100000000    -0.541203   
O52      O      0.172850000000     0.398650000000     0.832280000000    -0.545585   
O53      O      0.112220000000     0.334200000000     0.842850000000    -0.541421   
O54      O      0.174250000000     0.277540000000     0.793670000000    -0.545273   
O55      O      0.157450000000     0.303740000000     0.904130000000    -0.543332   
O56      O      0.129280000000     0.307700000000     0.732240000000    -0.54384    
O57      O      0.374580000000     0.187520000000     0.737600000000    -0.543197   
O58      O      0.370650000000     0.215700000000     0.565690000000    -0.543734   
O59      O      0.344140000000     0.232760000000     0.676290000000    -0.541292   
O60      O      0.400790000000     0.170720000000     0.627140000000    -0.545455   
O61      O      0.336340000000     0.110080000000     0.616570000000    -0.54129    
O62      O      0.279690000000     0.172120000000     0.665710000000    -0.545521   
O63      O      0.305900000000     0.155320000000     0.555260000000    -0.543196   
O64      O      0.309830000000     0.127140000000     0.727160000000    -0.543846   
O65      O      0.037250000000     0.548980000000     0.899060000000    -0.543771   
O66      O      0.041210000000     0.520800000000     0.070960000000    -0.542802   
O67      O      0.067420000000     0.504020000000     0.960480000000    -0.545342   
O68      O      0.010730000000     0.566020000000     0.009680000000    -0.540542   
O69      O      0.946290000000     0.505370000000     0.999110000000    -0.545687   
O70      O      0.002980000000     0.443370000000     0.949920000000    -0.540853   
O71      O      0.976470000000     0.460410000000     0.060530000000    -0.543731   
O72      O      0.972500000000     0.488590000000     0.888640000000    -0.543445   
O73      O      0.703830000000     0.882280000000     0.232120000000    -0.543815   
O74      O      0.707780000000     0.854110000000     0.404020000000    -0.543211   
O75      O      0.733980000000     0.837300000000     0.293550000000    -0.545473   
O76      O      0.677330000000     0.899340000000     0.342730000000    -0.541229   
O77      O      0.612880000000     0.838700000000     0.332160000000    -0.545441   
O78      O      0.669530000000     0.776660000000     0.282990000000    -0.541247   
O79      O      0.643030000000     0.793720000000     0.393590000000    -0.543793   
O80      O      0.639080000000     0.821900000000     0.221690000000    -0.543135   
O81      O      0.884400000000     0.701730000000     0.227120000000    -0.543804   
O82      O      0.856230000000     0.705650000000     0.055220000000    -0.543202   
O83      O      0.839420000000     0.731870000000     0.165660000000    -0.545353   
O84      O      0.901470000000     0.675210000000     0.116540000000    -0.541159   
O85      O      0.840830000000     0.610760000000     0.127120000000    -0.545323   
O86      O      0.778780000000     0.667420000000     0.176240000000    -0.541143   
O87      O      0.795850000000     0.640890000000     0.065660000000    -0.543691   
O88      O      0.824020000000     0.636980000000     0.237560000000    -0.543173   
O89      O      0.522960000000     0.039060000000     0.388560000000    -0.543134   
O90      O      0.551130000000     0.035100000000     0.560450000000    -0.543822   
O91      O      0.568170000000     0.008580000000     0.449830000000    -0.541167   
O92      O      0.506170000000     0.065270000000     0.499040000000    -0.545551   
O93      O      0.445530000000     0.000830000000     0.509610000000    -0.541392   
O94      O      0.507520000000     0.944140000000     0.460400000000    -0.545435   
O95      O      0.490740000000     0.970350000000     0.570870000000    -0.54321    
O96      O      0.462560000000     0.974320000000     0.398990000000    -0.54385    
O97      O      0.305900000000     0.153170000000     0.055260000000    -0.543039   
O98      O      0.309830000000     0.185280000000     0.227130000000    -0.543593   
O99      O      0.336350000000     0.228840000000     0.116490000000    -0.541098   
O100     O      0.279680000000     0.110170000000     0.165760000000    -0.545222   
O101     O      0.344130000000     0.113940000000     0.176360000000    -0.541172   
O102     O      0.400800000000     0.232610000000     0.127100000000    -0.545267   
O103     O      0.374590000000     0.189610000000     0.237590000000    -0.543093   
O104     O      0.370650000000     0.157500000000     0.065730000000    -0.543798   
O105     O      0.490730000000     0.522910000000     0.070690000000    -0.542572   
O106     O      0.462570000000     0.490810000000     0.898800000000    -0.543676   
O107     O      0.445530000000     0.447240000000     0.009450000000    -0.540831   
O108     O      0.507510000000     0.565910000000     0.960190000000    -0.545246   
O109     O      0.568170000000     0.562100000000     0.949660000000    -0.541186   
O110     O      0.506190000000     0.443430000000     0.998920000000    -0.545652   
O111     O      0.522970000000     0.486430000000     0.888410000000    -0.543007   
O112     O      0.551130000000     0.518540000000     0.060290000000    -0.543442   
O113     O      0.129290000000     0.824230000000     0.232440000000    -0.54384    
O114     O      0.157440000000     0.856310000000     0.404330000000    -0.543066   
O115     O      0.174250000000     0.899330000000     0.293840000000    -0.545267   
O116     O      0.112230000000     0.780660000000     0.343070000000    -0.541292   
O117     O      0.172870000000     0.776820000000     0.332540000000    -0.545223   
O118     O      0.234900000000     0.895500000000     0.283310000000    -0.541124   
O119     O      0.217830000000     0.851920000000     0.393940000000    -0.54377    
O120     O      0.189680000000     0.819840000000     0.222050000000    -0.542994   
O121     O      0.976430000000     0.518600000000     0.560500000000    -0.544075   
O122     O      0.972530000000     0.486530000000     0.388620000000    -0.543476   
O123     O      0.946290000000     0.443510000000     0.499080000000    -0.545237   
O124     O      0.002970000000     0.562190000000     0.449890000000    -0.540852   
O125     O      0.067420000000     0.565960000000     0.460510000000    -0.545277   
O126     O      0.010730000000     0.447270000000     0.509710000000    -0.540851   
O127     O      0.037270000000     0.490860000000     0.399100000000    -0.544045   
O128     O      0.041180000000     0.522930000000     0.570980000000    -0.543264   
O129     O      0.824000000000     0.189590000000     0.737480000000    -0.543192   
O130     O      0.795860000000     0.157540000000     0.565590000000    -0.543745   
O131     O      0.778790000000     0.113940000000     0.676200000000    -0.541167   
O132     O      0.840820000000     0.232630000000     0.627010000000    -0.545338   
O133     O      0.901460000000     0.228790000000     0.616480000000    -0.541348   
O134     O      0.839440000000     0.110110000000     0.665680000000    -0.54534    
O135     O      0.856250000000     0.153140000000     0.555200000000    -0.543085   
O136     O      0.884390000000     0.185200000000     0.727090000000    -0.543937   
O137     O      0.643010000000     0.851860000000     0.893560000000    -0.543862   
O138     O      0.639100000000     0.819790000000     0.721680000000    -0.543075   
O139     O      0.612890000000     0.776760000000     0.832150000000    -0.545404   
O140     O      0.669540000000     0.895450000000     0.782950000000    -0.541095   
O141     O      0.733990000000     0.899230000000     0.793560000000    -0.545396   
O142     O      0.677340000000     0.780550000000     0.842760000000    -0.541276   
O143     O      0.703860000000     0.824130000000     0.732140000000    -0.54372    
O144     O      0.707770000000     0.856210000000     0.904030000000    -0.543388   
V1       V      0.838020000000     0.636450000000     0.652120000000     1.3849     
V2       V      0.842320000000     0.706190000000     0.640660000000     1.38502    
V3       V      0.175650000000     0.805290000000     0.807500000000     1.38503    
V4       V      0.171300000000     0.870700000000     0.818880000000     1.38505    
V5       V      0.504700000000     0.969850000000     0.985460000000     1.38398    
V6       V      0.508980000000     0.039580000000     0.973980000000     1.38491    
V7       V      0.171370000000     0.303220000000     0.318700000000     1.38519    
V8       V      0.175680000000     0.372960000000     0.307230000000     1.38513    
V9       V      0.842360000000     0.138720000000     0.140650000000     1.38541    
V10      V      0.838010000000     0.204130000000     0.152030000000     1.38497    
V11      V      0.509040000000     0.471990000000     0.473850000000     1.38511    
V12      V      0.504720000000     0.537420000000     0.485250000000     1.38536    
V13      V      0.206250000000     0.372970000000     0.807260000000     1.38542    
V14      V      0.140850000000     0.303230000000     0.818690000000     1.38558    
V15      V      0.375110000000     0.204120000000     0.652150000000     1.3854     
V16      V      0.305370000000     0.138720000000     0.640710000000     1.38569    
V17      V      0.041720000000     0.537400000000     0.985510000000     1.38482    
V18      V      0.971990000000     0.471990000000     0.974080000000     1.38424    
V19      V      0.708300000000     0.870700000000     0.318570000000     1.38546    
V20      V      0.638560000000     0.805300000000     0.307140000000     1.38545    
V21      V      0.872820000000     0.706180000000     0.140670000000     1.38526    
V22      V      0.807430000000     0.636450000000     0.152110000000     1.38539    
V23      V      0.539550000000     0.039570000000     0.474010000000     1.38545    
V24      V      0.474140000000     0.969840000000     0.485430000000     1.38564    
V25      V      0.305380000000     0.169240000000     0.140700000000     1.38514    
V26      V      0.375110000000     0.173540000000     0.152160000000     1.38533    
V27      V      0.474140000000     0.506840000000     0.985240000000     1.38407    
V28      V      0.539560000000     0.502510000000     0.973850000000     1.38485    
V29      V      0.140850000000     0.840250000000     0.318880000000     1.3854     
V30      V      0.206260000000     0.835900000000     0.307500000000     1.38509    
V31      V      0.971990000000     0.502590000000     0.474060000000     1.38462    
V32      V      0.041720000000     0.506870000000     0.485540000000     1.38572    
V33      V      0.807420000000     0.173550000000     0.652040000000     1.38522    
V34      V      0.872830000000     0.169190000000     0.640650000000     1.38536    
V35      V      0.638570000000     0.835840000000     0.807120000000     1.38514    
V36      V      0.708310000000     0.840150000000     0.818590000000     1.3851     


