data_structure

_audit_creation_method RASPA-1.0
_audit_creation_date 2023-5-22
_audit_author_name 'Poobodin Mano'

_cell_length_a    37.1997
_cell_length_b    37.2059
_cell_length_c    37.1871
_cell_angle_alpha 90.0004
_cell_angle_beta  89.9996
_cell_angle_gamma 89.9997
_cell_volume      51468.7

_symmetry_cell_setting          triclinic
_symmetry_space_group_name_Hall 'P 1'
_symmetry_space_group_name_H-M  'P 1'
_symmetry_Int_Tables_number     1

_symmetry_equiv_pos_as_xyz 'x,y,z'

loop_
_atom_site_label
_atom_site_type_symbol
_atom_site_fract_x
_atom_site_fract_y
_atom_site_fract_z
_atom_site_charge
C1       C      0.819610000000     0.542580000000     0.888110000000     0.425381   
C2       C      0.887960000000     0.447120000000     0.819770000000     0.425245   
C3       C      0.819610000000     0.447120000000     0.888110000000     0.42541    
C4       C      0.887970000000     0.542580000000     0.819770000000     0.425161   
C5       C      0.737310000000     0.635340000000     0.980890000000     0.425035   
C6       C      0.668980000000     0.703670000000     0.076400000000     0.425021   
C7       C      0.737310000000     0.635340000000     0.076390000000     0.42527    
C8       C      0.668980000000     0.703680000000     0.980890000000     0.425168   
C9       C      0.576210000000     0.854350000000     0.819800000000     0.425195   
C10      C      0.480740000000     0.785990000000     0.888130000000     0.425358   
C11      C      0.480730000000     0.854350000000     0.819800000000     0.425441   
C12      C      0.576210000000     0.785990000000     0.888130000000     0.425258   
C13      C      0.737330000000     0.947130000000     0.669180000000     0.425321   
C14      C      0.668980000000     0.042590000000     0.737520000000     0.425053   
C15      C      0.737330000000     0.042590000000     0.669180000000     0.425294   
C16      C      0.668980000000     0.947130000000     0.737520000000     0.425132   
C17      C      0.980730000000     0.635360000000     0.737480000000     0.425323   
C18      C      0.076210000000     0.703720000000     0.669160000000     0.425417   
C19      C      0.076210000000     0.635360000000     0.737480000000     0.425401   
C20      C      0.980730000000     0.703720000000     0.669160000000     0.425369   
C21      C      0.887960000000     0.786030000000     0.480890000000     0.425319   
C22      C      0.819630000000     0.854370000000     0.576400000000     0.425153   
C23      C      0.887960000000     0.786030000000     0.576400000000     0.425357   
C24      C      0.819630000000     0.854370000000     0.480900000000     0.425135   
C25      C      0.480730000000     0.203720000000     0.888130000000     0.425316   
C26      C      0.576210000000     0.135370000000     0.819800000000     0.425243   
C27      C      0.576200000000     0.203720000000     0.888130000000     0.425171   
C28      C      0.480730000000     0.135360000000     0.819800000000     0.424974   
C29      C      0.668970000000     0.286030000000     0.076400000000     0.425127   
C30      C      0.737310000000     0.354360000000     0.980890000000     0.425      
C31      C      0.668970000000     0.286030000000     0.980890000000     0.424968   
C32      C      0.737310000000     0.354370000000     0.076400000000     0.424957   
C33      C      0.819610000000     0.542580000000     0.169170000000     0.425127   
C34      C      0.887970000000     0.447120000000     0.237520000000     0.425186   
C35      C      0.819610000000     0.447120000000     0.169170000000     0.425179   
C36      C      0.887970000000     0.542580000000     0.237520000000     0.425225   
C37      C      0.076210000000     0.635360000000     0.319800000000     0.425077   
C38      C      0.980730000000     0.703720000000     0.388130000000     0.425139   
C39      C      0.980730000000     0.635360000000     0.319800000000     0.425053   
C40      C      0.076200000000     0.703720000000     0.388130000000     0.425051   
C41      C      0.237310000000     0.854360000000     0.576400000000     0.425112   
C42      C      0.168970000000     0.786030000000     0.480890000000     0.425116   
C43      C      0.237310000000     0.854370000000     0.480890000000     0.425144   
C44      C      0.168980000000     0.786030000000     0.576400000000     0.425094   
C45      C      0.387970000000     0.947120000000     0.737520000000     0.425084   
C46      C      0.319610000000     0.042580000000     0.669170000000     0.424957   
C47      C      0.387970000000     0.042580000000     0.737510000000     0.425302   
C48      C      0.319610000000     0.947120000000     0.669170000000     0.424824   
C49      C      0.668980000000     0.042590000000     0.319770000000     0.424968   
C50      C      0.737330000000     0.947120000000     0.388120000000     0.425034   
C51      C      0.668980000000     0.947120000000     0.319780000000     0.425524   
C52      C      0.737330000000     0.042590000000     0.388120000000     0.424995   
C53      C      0.480740000000     0.854340000000     0.237490000000     0.425429   
C54      C      0.576220000000     0.785980000000     0.169160000000     0.424974   
C55      C      0.576210000000     0.854340000000     0.237490000000     0.425348   
C56      C      0.480740000000     0.785980000000     0.169160000000     0.424981   
C57      C      0.168980000000     0.447120000000     0.819770000000     0.425164   
C58      C      0.237330000000     0.542580000000     0.888110000000     0.425548   
C59      C      0.168980000000     0.542580000000     0.819770000000     0.425248   
C60      C      0.237330000000     0.447120000000     0.888120000000     0.42524    
C61      C      0.319640000000     0.635340000000     0.076400000000     0.425272   
C62      C      0.387970000000     0.703680000000     0.980890000000     0.425229   
C63      C      0.319640000000     0.635340000000     0.980890000000     0.425284   
C64      C      0.387970000000     0.703670000000     0.076400000000     0.425343   
C65      C      0.168980000000     0.542590000000     0.237520000000     0.425209   
C66      C      0.237330000000     0.447130000000     0.169180000000     0.425456   
C67      C      0.168980000000     0.447130000000     0.237520000000     0.425243   
C68      C      0.237330000000     0.542590000000     0.169180000000     0.425429   
C69      C      0.319630000000     0.354370000000     0.076400000000     0.425026   
C70      C      0.387960000000     0.286030000000     0.980890000000     0.425127   
C71      C      0.319630000000     0.354370000000     0.980890000000     0.424884   
C72      C      0.387960000000     0.286030000000     0.076400000000     0.42503    
C73      C      0.576210000000     0.135360000000     0.237490000000     0.425492   
C74      C      0.480730000000     0.203720000000     0.169160000000     0.4253     
C75      C      0.480730000000     0.135360000000     0.237480000000     0.425291   
C76      C      0.576210000000     0.203720000000     0.169160000000     0.425298   
C77      C      0.076220000000     0.285990000000     0.669160000000     0.42487    
C78      C      0.980740000000     0.354340000000     0.737490000000     0.425131   
C79      C      0.980740000000     0.285980000000     0.669160000000     0.425072   
C80      C      0.076210000000     0.354340000000     0.737490000000     0.425207   
C81      C      0.819630000000     0.135340000000     0.480890000000     0.425342   
C82      C      0.887970000000     0.203680000000     0.576400000000     0.425342   
C83      C      0.819630000000     0.135340000000     0.576400000000     0.425094   
C84      C      0.887970000000     0.203680000000     0.480890000000     0.42511    
C85      C      0.237310000000     0.135340000000     0.480880000000     0.42515    
C86      C      0.168980000000     0.203670000000     0.576400000000     0.42524    
C87      C      0.237310000000     0.135340000000     0.576390000000     0.425657   
C88      C      0.168980000000     0.203680000000     0.480890000000     0.425378   
C89      C      0.319610000000     0.042580000000     0.388110000000     0.425278   
C90      C      0.387970000000     0.947120000000     0.319770000000     0.425205   
C91      C      0.319610000000     0.947120000000     0.388110000000     0.425214   
C92      C      0.387970000000     0.042580000000     0.319770000000     0.424988   
C93      C      0.076210000000     0.285990000000     0.388130000000     0.42512    
C94      C      0.980730000000     0.354350000000     0.319800000000     0.425223   
C95      C      0.980740000000     0.285990000000     0.388130000000     0.425124   
C96      C      0.076210000000     0.354350000000     0.319800000000     0.425313   
C97      C      0.149030000000     0.262390000000     0.455100000000     0.000471735
C98      C      0.147660000000     0.224660000000     0.454820000000    -0.10624    
C99      C      0.124170000000     0.207280000000     0.430900000000     0.000795571
C100     C      0.102010000000     0.227280000000     0.408070000000     0.000417779
C101     C      0.102280000000     0.265010000000     0.409440000000    -0.106179   
C102     C      0.126200000000     0.282390000000     0.432940000000     0.000749329
C103     C      0.296030000000     0.115390000000     0.455080000000     0.000450293
C104     C      0.258290000000     0.114030000000     0.454810000000    -0.106159   
C105     C      0.240900000000     0.090540000000     0.430890000000     0.000790043
C106     C      0.260900000000     0.068380000000     0.408060000000     0.000536704
C107     C      0.298630000000     0.068650000000     0.409420000000    -0.106151   
C108     C      0.316020000000     0.092560000000     0.432920000000     0.000829797
C109     C      0.907920000000     0.262390000000     0.455100000000     0.000491719
C110     C      0.909280000000     0.224660000000     0.454820000000    -0.106133   
C111     C      0.932780000000     0.207270000000     0.430900000000     0.000811702
C112     C      0.954940000000     0.227280000000     0.408070000000     0.000460095
C113     C      0.954660000000     0.265010000000     0.409440000000    -0.106      
C114     C      0.930750000000     0.282390000000     0.432940000000     0.000773811
C115     C      0.930750000000     0.282390000000     0.624350000000     0.000731241
C116     C      0.954670000000     0.265000000000     0.647850000000    -0.106008   
C117     C      0.954940000000     0.227270000000     0.649220000000     0.000446142
C118     C      0.932780000000     0.207270000000     0.626390000000     0.000890647
C119     C      0.909290000000     0.224650000000     0.602470000000    -0.106228   
C120     C      0.907920000000     0.262390000000     0.602190000000     0.000516299
C121     C      0.126200000000     0.282390000000     0.624350000000     0.000687199
C122     C      0.102290000000     0.265000000000     0.647850000000    -0.106029   
C123     C      0.102010000000     0.227270000000     0.649220000000     0.000366924
C124     C      0.124170000000     0.207270000000     0.626390000000     0.000805064
C125     C      0.147670000000     0.224650000000     0.602470000000    -0.106222   
C126     C      0.149030000000     0.262390000000     0.602190000000     0.000478574
C127     C      0.407930000000     0.068390000000     0.261040000000     0.000439376
C128     C      0.409280000000     0.068650000000     0.298790000000    -0.106023   
C129     C      0.432770000000     0.092550000000     0.316200000000     0.000756899
C130     C      0.454930000000     0.115390000000     0.296210000000     0.000494962
C131     C      0.454660000000     0.114040000000     0.258460000000    -0.106161   
C132     C      0.430760000000     0.090550000000     0.241050000000     0.000832038
C133     C      0.407910000000     0.227320000000     0.102190000000     0.000347496
C134     C      0.409280000000     0.265050000000     0.102470000000    -0.106092   
C135     C      0.432770000000     0.282430000000     0.126390000000     0.000709042
C136     C      0.454930000000     0.262430000000     0.149220000000     0.00051937 
C137     C      0.454660000000     0.224700000000     0.147850000000    -0.106271   
C138     C      0.430750000000     0.207320000000     0.124350000000     0.000839909
C139     C      0.240920000000     0.397150000000     0.124370000000     0.000796212
C140     C      0.258310000000     0.421060000000     0.147860000000    -0.106229   
C141     C      0.296050000000     0.421330000000     0.149230000000     0.000455771
C142     C      0.316050000000     0.399170000000     0.126390000000     0.000755651
C143     C      0.298660000000     0.375680000000     0.102480000000    -0.10617    
C144     C      0.260920000000     0.374320000000     0.102210000000     0.000401088
C145     C      0.102020000000     0.374320000000     0.261080000000     0.000472224
C146     C      0.102280000000     0.375670000000     0.298830000000    -0.106301   
C147     C      0.126180000000     0.399150000000     0.316240000000     0.000838482
C148     C      0.149020000000     0.421320000000     0.296250000000     0.000373956
C149     C      0.147660000000     0.421060000000     0.258490000000    -0.106165   
C150     C      0.124180000000     0.397150000000     0.241090000000     0.000753659
C151     C      0.316050000000     0.590540000000     0.126390000000     0.000781112
C152     C      0.298660000000     0.614020000000     0.102470000000    -0.106233   
C153     C      0.260920000000     0.615390000000     0.102200000000     0.000401299
C154     C      0.240920000000     0.592560000000     0.124370000000     0.000789936
C155     C      0.258310000000     0.568650000000     0.147860000000    -0.106285   
C156     C      0.296050000000     0.568380000000     0.149230000000     0.000470478
C157     C      0.149020000000     0.421310000000     0.761050000000     0.000451515
C158     C      0.147660000000     0.421050000000     0.798800000000    -0.10618    
C159     C      0.124180000000     0.397150000000     0.816210000000     0.000763274
C160     C      0.102020000000     0.374310000000     0.796210000000     0.000436829
C161     C      0.102280000000     0.375660000000     0.758460000000    -0.106188   
C162     C      0.126190000000     0.399150000000     0.741050000000     0.000739024
C163     C      0.296050000000     0.568380000000     0.908070000000     0.000511126
C164     C      0.258310000000     0.568650000000     0.909430000000    -0.106204   
C165     C      0.240920000000     0.592560000000     0.932930000000     0.000807221
C166     C      0.260920000000     0.615390000000     0.955090000000     0.000507275
C167     C      0.298660000000     0.614030000000     0.954820000000    -0.106153   
C168     C      0.316050000000     0.590540000000     0.930900000000     0.000779904
C169     C      0.240920000000     0.397150000000     0.932930000000     0.000877482
C170     C      0.258310000000     0.421060000000     0.909430000000    -0.106252   
C171     C      0.296050000000     0.421330000000     0.908070000000     0.000551484
C172     C      0.316050000000     0.399170000000     0.930900000000     0.00068294 
C173     C      0.298650000000     0.375680000000     0.954820000000    -0.105989   
C174     C      0.260920000000     0.374320000000     0.955090000000     0.000435562
C175     C      0.454940000000     0.727270000000     0.149220000000     0.000379262
C176     C      0.454670000000     0.765000000000     0.147850000000    -0.106063   
C177     C      0.430750000000     0.782390000000     0.124350000000     0.000622728
C178     C      0.407920000000     0.762380000000     0.102190000000     0.000509579
C179     C      0.409290000000     0.724650000000     0.102470000000    -0.106288   
C180     C      0.432780000000     0.707270000000     0.126390000000     0.000830175
C181     C      0.454930000000     0.874310000000     0.296210000000     0.000442478
C182     C      0.454660000000     0.875660000000     0.258460000000    -0.106217   
C183     C      0.430760000000     0.899140000000     0.241050000000     0.000741542
C184     C      0.407930000000     0.921310000000     0.261050000000     0.000459163
C185     C      0.409280000000     0.921040000000     0.298790000000    -0.106202   
C186     C      0.432770000000     0.897140000000     0.316200000000     0.000763478
C187     C      0.796050000000     0.068380000000     0.408070000000     0.000432089
C188     C      0.758310000000     0.068650000000     0.409430000000    -0.106061   
C189     C      0.740920000000     0.092560000000     0.432930000000     0.000749008
C190     C      0.760920000000     0.115390000000     0.455090000000     0.000564513
C191     C      0.798660000000     0.114030000000     0.454820000000    -0.106296   
C192     C      0.816050000000     0.090540000000     0.430900000000     0.000891899
C193     C      0.649020000000     0.921310000000     0.261050000000     0.000478976
C194     C      0.647660000000     0.921050000000     0.298800000000    -0.106292   
C195     C      0.624180000000     0.897150000000     0.316210000000     0.000780862
C196     C      0.602020000000     0.874310000000     0.296210000000     0.000461773
C197     C      0.602280000000     0.875660000000     0.258460000000    -0.106209   
C198     C      0.626190000000     0.899150000000     0.241050000000     0.000715254
C199     C      0.649010000000     0.068390000000     0.261050000000     0.000394771
C200     C      0.647660000000     0.068660000000     0.298800000000    -0.105978   
C201     C      0.624170000000     0.092560000000     0.316210000000     0.000665316
C202     C      0.602020000000     0.115390000000     0.296210000000     0.000616616
C203     C      0.602280000000     0.114040000000     0.258460000000    -0.106335   
C204     C      0.626180000000     0.090560000000     0.241050000000     0.000918077
C205     C      0.316020000000     0.092560000000     0.624360000000     0.000723082
C206     C      0.298630000000     0.068650000000     0.647850000000    -0.105953   
C207     C      0.260900000000     0.068380000000     0.649220000000     0.000393301
C208     C      0.240900000000     0.090540000000     0.626380000000     0.000935312
C209     C      0.258290000000     0.114020000000     0.602470000000    -0.106283   
C210     C      0.296030000000     0.115380000000     0.602200000000     0.000562151
C211     C      0.240900000000     0.899170000000     0.626390000000     0.000739202
C212     C      0.258290000000     0.875680000000     0.602470000000    -0.106161   
C213     C      0.296020000000     0.874320000000     0.602200000000     0.000489411
C214     C      0.316020000000     0.897140000000     0.624360000000     0.000712176
C215     C      0.298630000000     0.921050000000     0.647860000000    -0.106102   
C216     C      0.260900000000     0.921320000000     0.649220000000     0.000422175
C217     C      0.240890000000     0.899170000000     0.430900000000     0.000772697
C218     C      0.258280000000     0.875680000000     0.454810000000    -0.106189   
C219     C      0.296020000000     0.874320000000     0.455090000000     0.000448684
C220     C      0.316020000000     0.897140000000     0.432920000000     0.000772142
C221     C      0.298630000000     0.921050000000     0.409430000000    -0.10617    
C222     C      0.260890000000     0.921330000000     0.408060000000     0.00037135 
C223     C      0.102000000000     0.762430000000     0.408070000000     0.0004262  
C224     C      0.102270000000     0.724700000000     0.409440000000    -0.106147   
C225     C      0.126190000000     0.707320000000     0.432940000000     0.000745732
C226     C      0.149020000000     0.727320000000     0.455100000000     0.000454046
C227     C      0.147660000000     0.765050000000     0.454820000000    -0.106176   
C228     C      0.124160000000     0.782440000000     0.430900000000     0.000721123
C229     C      0.149020000000     0.568400000000     0.296250000000     0.000365015
C230     C      0.147660000000     0.568660000000     0.258490000000    -0.106154   
C231     C      0.124180000000     0.592560000000     0.241080000000     0.000719483
C232     C      0.102020000000     0.615400000000     0.261080000000     0.000475954
C233     C      0.102280000000     0.614050000000     0.298830000000    -0.106281   
C234     C      0.126180000000     0.590560000000     0.316240000000     0.000817007
C235     C      0.932770000000     0.592560000000     0.241080000000     0.00080602 
C236     C      0.909280000000     0.568650000000     0.258490000000    -0.106214   
C237     C      0.907930000000     0.568400000000     0.296240000000     0.000568764
C238     C      0.930760000000     0.590560000000     0.316240000000     0.000728897
C239     C      0.954660000000     0.614040000000     0.298830000000    -0.106042   
C240     C      0.954930000000     0.615390000000     0.261080000000     0.000473356
C241     C      0.954930000000     0.374310000000     0.261080000000     0.000474702
C242     C      0.954660000000     0.375670000000     0.298830000000    -0.106117   
C243     C      0.930760000000     0.399150000000     0.316240000000     0.00078443 
C244     C      0.907930000000     0.421310000000     0.296240000000     0.000513335
C245     C      0.909280000000     0.421050000000     0.258490000000    -0.106195   
C246     C      0.932770000000     0.397150000000     0.241080000000     0.000823926
C247     C      0.740900000000     0.399170000000     0.126390000000     0.000730936
C248     C      0.758290000000     0.375680000000     0.102470000000    -0.106171   
C249     C      0.796020000000     0.374320000000     0.102200000000     0.000448639
C250     C      0.816020000000     0.397150000000     0.124360000000     0.000792759
C251     C      0.798630000000     0.421050000000     0.147860000000    -0.106208   
C252     C      0.760900000000     0.421320000000     0.149220000000     0.000501548
C253     C      0.624160000000     0.282430000000     0.126390000000     0.000734815
C254     C      0.647660000000     0.265050000000     0.102470000000    -0.106216   
C255     C      0.649030000000     0.227320000000     0.102190000000     0.000419254
C256     C      0.626190000000     0.207320000000     0.124350000000     0.000812184
C257     C      0.602280000000     0.224700000000     0.147850000000    -0.106256   
C258     C      0.602010000000     0.262430000000     0.149220000000     0.00050776 
C259     C      0.454930000000     0.115390000000     0.761070000000     0.000391866
C260     C      0.454660000000     0.114040000000     0.798830000000    -0.106018   
C261     C      0.430760000000     0.090560000000     0.816240000000     0.000736718
C262     C      0.407930000000     0.068400000000     0.796240000000     0.000588693
C263     C      0.409280000000     0.068650000000     0.758490000000    -0.106161   
C264     C      0.432770000000     0.092560000000     0.741080000000     0.000838676
C265     C      0.626190000000     0.207320000000     0.932940000000     0.000815167
C266     C      0.602270000000     0.224700000000     0.909440000000    -0.106091   
C267     C      0.602000000000     0.262440000000     0.908070000000     0.000469694
C268     C      0.624160000000     0.282440000000     0.930900000000     0.000752231
C269     C      0.647660000000     0.265050000000     0.954820000000    -0.106027   
C270     C      0.649020000000     0.227320000000     0.955100000000     0.000476488
C271     C      0.430740000000     0.207320000000     0.932940000000     0.000860762
C272     C      0.454660000000     0.224700000000     0.909440000000    -0.106194   
C273     C      0.454930000000     0.262430000000     0.908070000000     0.000539457
C274     C      0.432770000000     0.282440000000     0.930900000000     0.000732276
C275     C      0.409280000000     0.265050000000     0.954820000000    -0.106024   
C276     C      0.407910000000     0.227320000000     0.955100000000     0.000448624
C277     C      0.932770000000     0.782430000000     0.430900000000     0.000849113
C278     C      0.909280000000     0.765050000000     0.454820000000    -0.106191   
C279     C      0.907910000000     0.727320000000     0.455100000000     0.000508311
C280     C      0.930740000000     0.707320000000     0.432940000000     0.000765733
C281     C      0.954660000000     0.724700000000     0.409440000000    -0.10606    
C282     C      0.954930000000     0.762430000000     0.408070000000     0.000451542
C283     C      0.816050000000     0.899170000000     0.430910000000     0.000735979
C284     C      0.798650000000     0.875680000000     0.454820000000    -0.106124   
C285     C      0.760920000000     0.874320000000     0.455090000000     0.000452835
C286     C      0.740920000000     0.897150000000     0.432930000000     0.000776052
C287     C      0.758310000000     0.921060000000     0.409440000000    -0.106178   
C288     C      0.796050000000     0.921330000000     0.408070000000     0.000411393
C289     C      0.932770000000     0.782430000000     0.626390000000     0.000825844
C290     C      0.909280000000     0.765050000000     0.602470000000    -0.106166   
C291     C      0.907910000000     0.727320000000     0.602190000000     0.00045287 
C292     C      0.930750000000     0.707320000000     0.624350000000     0.000847263
C293     C      0.954660000000     0.724700000000     0.647850000000    -0.106179   
C294     C      0.954930000000     0.762430000000     0.649220000000     0.00050912 
C295     C      0.126200000000     0.707320000000     0.624350000000     0.000837603
C296     C      0.102280000000     0.724700000000     0.647850000000    -0.106335   
C297     C      0.102010000000     0.762430000000     0.649220000000     0.000515513
C298     C      0.124170000000     0.782430000000     0.626390000000     0.000697759
C299     C      0.147660000000     0.765050000000     0.602470000000    -0.106098   
C300     C      0.149030000000     0.727320000000     0.602190000000     0.000382828
C301     C      0.102020000000     0.615390000000     0.796210000000     0.000496087
C302     C      0.102280000000     0.614040000000     0.758460000000    -0.106259   
C303     C      0.126190000000     0.590560000000     0.741050000000     0.000773268
C304     C      0.149020000000     0.568390000000     0.761050000000     0.000418592
C305     C      0.147660000000     0.568660000000     0.798800000000    -0.106115   
C306     C      0.124180000000     0.592560000000     0.816210000000     0.000714461
C307     C      0.796050000000     0.921330000000     0.649230000000     0.000417498
C308     C      0.758310000000     0.921060000000     0.647860000000    -0.106198   
C309     C      0.740920000000     0.897150000000     0.624370000000     0.000785156
C310     C      0.760920000000     0.874320000000     0.602210000000     0.000457106
C311     C      0.798660000000     0.875680000000     0.602480000000    -0.106175   
C312     C      0.816050000000     0.899170000000     0.626400000000     0.000755082
C313     C      0.649020000000     0.068400000000     0.796240000000     0.000452098
C314     C      0.647660000000     0.068660000000     0.758490000000    -0.106026   
C315     C      0.624180000000     0.092560000000     0.741080000000     0.000750885
C316     C      0.602020000000     0.115400000000     0.761080000000     0.000527147
C317     C      0.602280000000     0.114050000000     0.798830000000    -0.10618    
C318     C      0.626180000000     0.090560000000     0.816240000000     0.000845772
C319     C      0.740920000000     0.092560000000     0.624370000000     0.000812779
C320     C      0.758310000000     0.068650000000     0.647860000000    -0.106122   
C321     C      0.796050000000     0.068380000000     0.649230000000     0.000489988
C322     C      0.816050000000     0.090540000000     0.626390000000     0.000818949
C323     C      0.798660000000     0.114030000000     0.602480000000    -0.106122   
C324     C      0.760920000000     0.115390000000     0.602200000000     0.000466041
C325     C      0.602020000000     0.874320000000     0.761080000000     0.000452582
C326     C      0.602280000000     0.875670000000     0.798830000000    -0.106202   
C327     C      0.626180000000     0.899150000000     0.816240000000     0.000783536
C328     C      0.649010000000     0.921320000000     0.796240000000     0.000454482
C329     C      0.647660000000     0.921060000000     0.758490000000    -0.106201   
C330     C      0.624180000000     0.897150000000     0.741090000000     0.000793283
C331     C      0.430760000000     0.899150000000     0.816240000000     0.000811067
C332     C      0.454670000000     0.875670000000     0.798830000000    -0.106349   
C333     C      0.454930000000     0.874310000000     0.761080000000     0.000526413
C334     C      0.432770000000     0.897150000000     0.741080000000     0.000724312
C335     C      0.409280000000     0.921050000000     0.758490000000    -0.106194   
C336     C      0.407930000000     0.921310000000     0.796240000000     0.000420869
C337     C      0.430750000000     0.782390000000     0.932940000000     0.000862364
C338     C      0.454670000000     0.765010000000     0.909440000000    -0.106214   
C339     C      0.454940000000     0.727280000000     0.908070000000     0.000557234
C340     C      0.432780000000     0.707270000000     0.930900000000     0.000735657
C341     C      0.409280000000     0.724660000000     0.954820000000    -0.106106   
C342     C      0.407920000000     0.762390000000     0.955100000000     0.000446578
C343     C      0.649030000000     0.762390000000     0.955100000000     0.000455835
C344     C      0.647660000000     0.724660000000     0.954820000000    -0.106064   
C345     C      0.624170000000     0.707280000000     0.930900000000     0.000774568
C346     C      0.602010000000     0.727280000000     0.908070000000     0.000506582
C347     C      0.602280000000     0.765010000000     0.909440000000    -0.106176   
C348     C      0.626200000000     0.782390000000     0.932940000000     0.000837946
C349     C      0.740900000000     0.590540000000     0.126390000000     0.000772831
C350     C      0.758290000000     0.614020000000     0.102470000000    -0.106169   
C351     C      0.796030000000     0.615380000000     0.102200000000     0.000418203
C352     C      0.816020000000     0.592560000000     0.124360000000     0.000768332
C353     C      0.798630000000     0.568650000000     0.147850000000    -0.106133   
C354     C      0.760900000000     0.568380000000     0.149220000000     0.000445014
C355     C      0.624180000000     0.707270000000     0.126390000000     0.000738864
C356     C      0.647670000000     0.724660000000     0.102470000000    -0.106128   
C357     C      0.649030000000     0.762390000000     0.102190000000     0.00039788 
C358     C      0.626200000000     0.782390000000     0.124350000000     0.000743004
C359     C      0.602290000000     0.765000000000     0.147850000000    -0.106128   
C360     C      0.602010000000     0.727270000000     0.149220000000     0.000433351
C361     C      0.932770000000     0.592550000000     0.816200000000     0.000826762
C362     C      0.909280000000     0.568650000000     0.798790000000    -0.106122   
C363     C      0.907930000000     0.568390000000     0.761040000000     0.000477762
C364     C      0.930760000000     0.590550000000     0.741050000000     0.000797164
C365     C      0.954660000000     0.614040000000     0.758460000000    -0.106102   
C366     C      0.954930000000     0.615390000000     0.796210000000     0.000485014
C367     C      0.816020000000     0.592560000000     0.932920000000     0.000892108
C368     C      0.798630000000     0.568650000000     0.909430000000    -0.106213   
C369     C      0.760900000000     0.568380000000     0.908060000000     0.000594962
C370     C      0.740890000000     0.590540000000     0.930890000000     0.00065398 
C371     C      0.758290000000     0.614030000000     0.954810000000    -0.105955   
C372     C      0.796020000000     0.615390000000     0.955080000000     0.000428981
C373     C      0.816020000000     0.397140000000     0.932920000000     0.000887656
C374     C      0.798630000000     0.421060000000     0.909430000000    -0.106234   
C375     C      0.760890000000     0.421330000000     0.908070000000     0.000542161
C376     C      0.740890000000     0.399170000000     0.930900000000     0.000718564
C377     C      0.758280000000     0.375680000000     0.954810000000    -0.105959   
C378     C      0.796020000000     0.374320000000     0.955080000000     0.000437394
C379     C      0.932770000000     0.397140000000     0.816210000000     0.000775012
C380     C      0.909280000000     0.421050000000     0.798800000000    -0.106088   
C381     C      0.907930000000     0.421310000000     0.761040000000     0.000444382
C382     C      0.930760000000     0.399140000000     0.741050000000     0.000788273
C383     C      0.954670000000     0.375660000000     0.758460000000    -0.106067   
C384     C      0.954930000000     0.374310000000     0.796210000000     0.000505115
H1       H      0.166750000000     0.276470000000     0.473430000000     0.0364138  
H2       H      0.122680000000     0.178210000000     0.430090000000     0.0361333  
H3       H      0.083680000000     0.213200000000     0.390350000000     0.0363619  
H4       H      0.127000000000     0.311460000000     0.434440000000     0.0361561  
H5       H      0.310110000000     0.133100000000     0.473410000000     0.0364585  
H6       H      0.211820000000     0.089050000000     0.430090000000     0.0361952  
H7       H      0.246810000000     0.050050000000     0.390340000000     0.0365018  
H8       H      0.345100000000     0.093360000000     0.434410000000     0.0362056  
H9       H      0.890200000000     0.276470000000     0.473430000000     0.0364468  
H10      H      0.934270000000     0.178200000000     0.430090000000     0.0362599  
H11      H      0.973270000000     0.213200000000     0.390350000000     0.0365645  
H12      H      0.929940000000     0.311460000000     0.434440000000     0.0362217  
H13      H      0.929950000000     0.311460000000     0.622850000000     0.0362377  
H14      H      0.973270000000     0.213190000000     0.666940000000     0.036584   
H15      H      0.934270000000     0.178200000000     0.627190000000     0.0362498  
H16      H      0.890200000000     0.276470000000     0.583860000000     0.036442   
H17      H      0.127010000000     0.311460000000     0.622850000000     0.0361675  
H18      H      0.083680000000     0.213190000000     0.666940000000     0.0363931  
H19      H      0.122680000000     0.178200000000     0.627200000000     0.0361406  
H20      H      0.166750000000     0.276470000000     0.583860000000     0.0364152  
H21      H      0.390220000000     0.050070000000     0.246940000000     0.0365283  
H22      H      0.434250000000     0.093350000000     0.345290000000     0.0362205  
H23      H      0.473250000000     0.133100000000     0.310310000000     0.0364484  
H24      H      0.429960000000     0.089070000000     0.211960000000     0.0361864  
H25      H      0.390200000000     0.213240000000     0.083860000000     0.0363895  
H26      H      0.434260000000     0.311500000000     0.127200000000     0.036167   
H27      H      0.473270000000     0.276510000000     0.166940000000     0.0363989  
H28      H      0.429940000000     0.178250000000     0.122850000000     0.0361235  
H29      H      0.211840000000     0.396350000000     0.122880000000     0.0360916  
H30      H      0.310140000000     0.439650000000     0.166950000000     0.0364129  
H31      H      0.345120000000     0.400660000000     0.127200000000     0.0361546  
H32      H      0.246830000000     0.356600000000     0.083880000000     0.0363397  
H33      H      0.083690000000     0.356610000000     0.246980000000     0.0363181  
H34      H      0.126980000000     0.400640000000     0.345320000000     0.0361335  
H35      H      0.166730000000     0.439640000000     0.310350000000     0.0364359  
H36      H      0.122690000000     0.396360000000     0.212000000000     0.0361084  
H37      H      0.345130000000     0.589050000000     0.127190000000     0.0361378  
H38      H      0.246840000000     0.633110000000     0.083870000000     0.0363258  
H39      H      0.211850000000     0.593360000000     0.122870000000     0.0360813  
H40      H      0.310140000000     0.550050000000     0.166940000000     0.0364086  
H41      H      0.166730000000     0.439630000000     0.746950000000     0.0364163  
H42      H      0.122690000000     0.396350000000     0.845290000000     0.0361536  
H43      H      0.083690000000     0.356610000000     0.810310000000     0.0363719  
H44      H      0.126990000000     0.400630000000     0.711970000000     0.0361672  
H45      H      0.310130000000     0.550050000000     0.890340000000     0.036436   
H46      H      0.211850000000     0.593360000000     0.934420000000     0.0362032  
H47      H      0.246830000000     0.633110000000     0.973420000000     0.036505   
H48      H      0.345120000000     0.589050000000     0.930090000000     0.0362112  
H49      H      0.211840000000     0.396350000000     0.934420000000     0.0361876  
H50      H      0.310130000000     0.439650000000     0.890350000000     0.0364302  
H51      H      0.345120000000     0.400660000000     0.930100000000     0.0362495  
H52      H      0.246830000000     0.356610000000     0.973420000000     0.0365436  
H53      H      0.473270000000     0.713190000000     0.166940000000     0.0364353  
H54      H      0.429950000000     0.811450000000     0.122850000000     0.0361361  
H55      H      0.390200000000     0.776460000000     0.083860000000     0.0363062  
H56      H      0.434280000000     0.678200000000     0.127190000000     0.0361277  
H57      H      0.473250000000     0.856600000000     0.310310000000     0.0364159  
H58      H      0.429970000000     0.900630000000     0.211970000000     0.0361057  
H59      H      0.390220000000     0.939630000000     0.246940000000     0.036303   
H60      H      0.434250000000     0.896350000000     0.345290000000     0.0361545  
H61      H      0.810130000000     0.050060000000     0.390350000000     0.0365768  
H62      H      0.711840000000     0.093360000000     0.434420000000     0.0362209  
H63      H      0.746830000000     0.133110000000     0.473420000000     0.036419   
H64      H      0.845120000000     0.089050000000     0.430100000000     0.0362454  
H65      H      0.666730000000     0.939630000000     0.246950000000     0.036319   
H66      H      0.622690000000     0.896360000000     0.345290000000     0.0361434  
H67      H      0.583690000000     0.856600000000     0.310310000000     0.0364132  
H68      H      0.626990000000     0.900630000000     0.211970000000     0.0361205  
H69      H      0.666730000000     0.050070000000     0.246950000000     0.0365505  
H70      H      0.622690000000     0.093350000000     0.345290000000     0.0362486  
H71      H      0.583690000000     0.133100000000     0.310310000000     0.0364104  
H72      H      0.626980000000     0.089070000000     0.211970000000     0.0361729  
H73      H      0.345100000000     0.093360000000     0.622870000000     0.0362336  
H74      H      0.246810000000     0.050050000000     0.666940000000     0.036542   
H75      H      0.211820000000     0.089050000000     0.627190000000     0.0361596  
H76      H      0.310110000000     0.133100000000     0.583860000000     0.036424   
H77      H      0.211820000000     0.900660000000     0.627190000000     0.0361063  
H78      H      0.310110000000     0.856600000000     0.583870000000     0.0364125  
H79      H      0.345100000000     0.896340000000     0.622870000000     0.0361728  
H80      H      0.246810000000     0.939650000000     0.666940000000     0.0363272  
H81      H      0.211820000000     0.900660000000     0.430100000000     0.0360985  
H82      H      0.310110000000     0.856600000000     0.473420000000     0.036422   
H83      H      0.345100000000     0.896340000000     0.434410000000     0.0361455  
H84      H      0.246810000000     0.939650000000     0.390340000000     0.0363388  
H85      H      0.083670000000     0.776510000000     0.390350000000     0.0363262  
H86      H      0.126990000000     0.678250000000     0.434440000000     0.0361664  
H87      H      0.166740000000     0.713240000000     0.473430000000     0.0364228  
H88      H      0.122670000000     0.811510000000     0.430090000000     0.0361052  
H89      H      0.166730000000     0.550080000000     0.310340000000     0.0364466  
H90      H      0.122690000000     0.593360000000     0.212000000000     0.0361021  
H91      H      0.083690000000     0.633110000000     0.246980000000     0.0363043  
H92      H      0.126980000000     0.589080000000     0.345320000000     0.0361457  
H93      H      0.934250000000     0.593350000000     0.212000000000     0.0362126  
H94      H      0.890210000000     0.550070000000     0.310340000000     0.0364294  
H95      H      0.929960000000     0.589080000000     0.345320000000     0.0362374  
H96      H      0.973250000000     0.633100000000     0.246970000000     0.0365193  
H97      H      0.973250000000     0.356600000000     0.246980000000     0.0365332  
H98      H      0.929960000000     0.400640000000     0.345320000000     0.036217   
H99      H      0.890220000000     0.439630000000     0.310340000000     0.036446   
H100     H      0.934250000000     0.396350000000     0.212000000000     0.0362063  
H101     H      0.711820000000     0.400660000000     0.127190000000     0.0361611  
H102     H      0.810110000000     0.356600000000     0.083870000000     0.036373   
H103     H      0.845100000000     0.396340000000     0.122870000000     0.0361483  
H104     H      0.746810000000     0.439650000000     0.166940000000     0.0363982  
H105     H      0.622670000000     0.311500000000     0.127190000000     0.0361616  
H106     H      0.666750000000     0.213240000000     0.083860000000     0.0363764  
H107     H      0.627000000000     0.178250000000     0.122850000000     0.0361363  
H108     H      0.583670000000     0.276510000000     0.166940000000     0.0364023  
H109     H      0.473250000000     0.133100000000     0.746970000000     0.036474   
H110     H      0.429960000000     0.089080000000     0.845320000000     0.0362843  
H111     H      0.390210000000     0.050070000000     0.810340000000     0.0365303  
H112     H      0.434250000000     0.093350000000     0.711990000000     0.0362066  
H113     H      0.626990000000     0.178250000000     0.934430000000     0.0362758  
H114     H      0.583670000000     0.276520000000     0.890350000000     0.0364538  
H115     H      0.622670000000     0.311510000000     0.930090000000     0.0362245  
H116     H      0.666740000000     0.213240000000     0.973430000000     0.0365784  
H117     H      0.429940000000     0.178250000000     0.934430000000     0.0362564  
H118     H      0.473260000000     0.276510000000     0.890350000000     0.0364301  
H119     H      0.434260000000     0.311510000000     0.930090000000     0.0362293  
H120     H      0.390190000000     0.213240000000     0.973430000000     0.0365748  
H121     H      0.934260000000     0.811500000000     0.430090000000     0.036191   
H122     H      0.890190000000     0.713240000000     0.473430000000     0.036446   
H123     H      0.929940000000     0.678250000000     0.434440000000     0.03623    
H124     H      0.973260000000     0.776510000000     0.390350000000     0.036522   
H125     H      0.845120000000     0.900660000000     0.430100000000     0.0361662  
H126     H      0.746830000000     0.856610000000     0.473430000000     0.0364139  
H127     H      0.711840000000     0.896350000000     0.434430000000     0.0361411  
H128     H      0.810130000000     0.939650000000     0.390350000000     0.03637    
H129     H      0.934270000000     0.811500000000     0.627200000000     0.0362001  
H130     H      0.890200000000     0.713240000000     0.583860000000     0.0364605  
H131     H      0.929940000000     0.678250000000     0.622850000000     0.0361888  
H132     H      0.973260000000     0.776510000000     0.666940000000     0.0365196  
H133     H      0.127000000000     0.678250000000     0.622850000000     0.0361239  
H134     H      0.083670000000     0.776510000000     0.666940000000     0.0363041  
H135     H      0.122670000000     0.811500000000     0.627200000000     0.0361157  
H136     H      0.166750000000     0.713240000000     0.583860000000     0.0364408  
H137     H      0.083690000000     0.633100000000     0.810310000000     0.036345   
H138     H      0.126980000000     0.589070000000     0.711970000000     0.0361412  
H139     H      0.166730000000     0.550070000000     0.746940000000     0.0364163  
H140     H      0.122690000000     0.593360000000     0.845290000000     0.0361615  
H141     H      0.810130000000     0.939650000000     0.666950000000     0.0363799  
H142     H      0.711840000000     0.896350000000     0.622880000000     0.036147   
H143     H      0.746830000000     0.856600000000     0.583870000000     0.0364139  
H144     H      0.845120000000     0.900660000000     0.627200000000     0.0361654  
H145     H      0.666730000000     0.050080000000     0.810340000000     0.0365828  
H146     H      0.622690000000     0.093360000000     0.712000000000     0.0362253  
H147     H      0.583690000000     0.133110000000     0.746980000000     0.0364347  
H148     H      0.626980000000     0.089080000000     0.845320000000     0.0362635  
H149     H      0.711850000000     0.093370000000     0.622870000000     0.0362016  
H150     H      0.810140000000     0.050060000000     0.666940000000     0.0365682  
H151     H      0.845120000000     0.089050000000     0.627190000000     0.0362697  
H152     H      0.746830000000     0.133110000000     0.583870000000     0.0364504  
H153     H      0.583690000000     0.856610000000     0.746980000000     0.0364167  
H154     H      0.626980000000     0.900640000000     0.845330000000     0.0361521  
H155     H      0.666730000000     0.939640000000     0.810350000000     0.0363602  
H156     H      0.622690000000     0.896360000000     0.712000000000     0.0361508  
H157     H      0.429960000000     0.900630000000     0.845320000000     0.0361405  
H158     H      0.473250000000     0.856600000000     0.746980000000     0.0364015  
H159     H      0.434250000000     0.896350000000     0.712000000000     0.0361729  
H160     H      0.390220000000     0.939630000000     0.810340000000     0.0363676  
H161     H      0.429940000000     0.811460000000     0.934440000000     0.0361902  
H162     H      0.473270000000     0.713190000000     0.890350000000     0.0364205  
H163     H      0.434270000000     0.678200000000     0.930090000000     0.0362209  
H164     H      0.390200000000     0.776460000000     0.973430000000     0.0365362  
H165     H      0.666750000000     0.776470000000     0.973430000000     0.0365408  
H166     H      0.622680000000     0.678210000000     0.930090000000     0.0362155  
H167     H      0.583680000000     0.713200000000     0.890350000000     0.0364403  
H168     H      0.627000000000     0.811460000000     0.934440000000     0.036205   
H169     H      0.711820000000     0.589050000000     0.127190000000     0.0361421  
H170     H      0.810110000000     0.633100000000     0.083860000000     0.0363584  
H171     H      0.845100000000     0.593360000000     0.122870000000     0.036149   
H172     H      0.746810000000     0.550050000000     0.166940000000     0.0364103  
H173     H      0.622680000000     0.678200000000     0.127200000000     0.0361506  
H174     H      0.666750000000     0.776460000000     0.083860000000     0.0363528  
H175     H      0.627010000000     0.811460000000     0.122850000000     0.0361034  
H176     H      0.583680000000     0.713190000000     0.166940000000     0.0364217  
H177     H      0.934250000000     0.593350000000     0.845290000000     0.0362596  
H178     H      0.890220000000     0.550070000000     0.746940000000     0.0364494  
H179     H      0.929960000000     0.589070000000     0.711960000000     0.0361998  
H180     H      0.973250000000     0.633100000000     0.810310000000     0.0365625  
H181     H      0.845100000000     0.593360000000     0.934410000000     0.0362383  
H182     H      0.746810000000     0.550050000000     0.890340000000     0.0364162  
H183     H      0.711820000000     0.589050000000     0.930090000000     0.0362541  
H184     H      0.810110000000     0.633100000000     0.973410000000     0.036571   
H185     H      0.845100000000     0.396340000000     0.934410000000     0.036249   
H186     H      0.746810000000     0.439650000000     0.890340000000     0.0364363  
H187     H      0.711820000000     0.400660000000     0.930100000000     0.0362408  
H188     H      0.810110000000     0.356600000000     0.973420000000     0.0365884  
H189     H      0.934250000000     0.396350000000     0.845290000000     0.0362912  
H190     H      0.890220000000     0.439630000000     0.746940000000     0.0364611  
H191     H      0.929970000000     0.400630000000     0.711970000000     0.0362312  
H192     H      0.973250000000     0.356600000000     0.810310000000     0.0365687  
O1       O      0.806810000000     0.530730000000     0.858330000000    -0.541858   
O2       O      0.858200000000     0.458970000000     0.806950000000    -0.541909   
O3       O      0.806810000000     0.458970000000     0.858330000000    -0.541857   
O4       O      0.858200000000     0.530730000000     0.806950000000    -0.541789   
O5       O      0.900520000000     0.530940000000     0.849730000000    -0.543767   
O6       O      0.849550000000     0.458760000000     0.900680000000    -0.54384    
O7       O      0.900520000000     0.458760000000     0.849730000000    -0.543759   
O8       O      0.849550000000     0.530940000000     0.900680000000    -0.54384    
O9       O      0.750120000000     0.665110000000     0.992740000000    -0.541381   
O10      O      0.698760000000     0.716480000000     0.064540000000    -0.5416     
O11      O      0.750120000000     0.665110000000     0.064540000000    -0.541829   
O12      O      0.698750000000     0.716480000000     0.992750000000    -0.541398   
O13      O      0.656420000000     0.673740000000     0.992540000000    -0.54338    
O14      O      0.707370000000     0.622790000000     0.064740000000    -0.544037   
O15      O      0.656420000000     0.673740000000     0.064750000000    -0.543744   
O16      O      0.707360000000     0.622790000000     0.992540000000    -0.543557   
O17      O      0.564360000000     0.824590000000     0.806980000000    -0.541875   
O18      O      0.492590000000     0.773200000000     0.858340000000    -0.54195    
O19      O      0.492590000000     0.824590000000     0.806980000000    -0.542019   
O20      O      0.564360000000     0.773200000000     0.858340000000    -0.541809   
O21      O      0.564560000000     0.815920000000     0.900710000000    -0.543841   
O22      O      0.492380000000     0.866890000000     0.849760000000    -0.543975   
O23      O      0.492380000000     0.815920000000     0.900710000000    -0.543909   
O24      O      0.564560000000     0.866890000000     0.849770000000    -0.543897   
O25      O      0.707390000000     0.958770000000     0.656610000000    -0.543885   
O26      O      0.656430000000     0.030940000000     0.707560000000    -0.543558   
O27      O      0.707390000000     0.030940000000     0.656610000000    -0.543549   
O28      O      0.656430000000     0.958770000000     0.707560000000    -0.543891   
O29      O      0.698750000000     0.958980000000     0.750340000000    -0.541739   
O30      O      0.750130000000     0.030740000000     0.698960000000    -0.541452   
O31      O      0.698750000000     0.030740000000     0.750340000000    -0.54133    
O32      O      0.750130000000     0.958980000000     0.698960000000    -0.541867   
O33      O      0.992380000000     0.622820000000     0.707530000000    -0.543592   
O34      O      0.064560000000     0.673790000000     0.656580000000    -0.543903   
O35      O      0.064560000000     0.622820000000     0.707530000000    -0.544015   
O36      O      0.992380000000     0.673790000000     0.656580000000    -0.543492   
O37      O      0.992580000000     0.716510000000     0.698940000000    -0.541388   
O38      O      0.064360000000     0.665120000000     0.750310000000    -0.541792   
O39      O      0.064360000000     0.716510000000     0.698940000000    -0.541796   
O40      O      0.992590000000     0.665120000000     0.750310000000    -0.541457   
O41      O      0.900520000000     0.815970000000     0.492540000000    -0.543884   
O42      O      0.849580000000     0.866920000000     0.564750000000    -0.543931   
O43      O      0.900520000000     0.815970000000     0.564750000000    -0.54399    
O44      O      0.849580000000     0.866920000000     0.492540000000    -0.543846   
O45      O      0.806820000000     0.824600000000     0.492750000000    -0.541779   
O46      O      0.858190000000     0.773230000000     0.564540000000    -0.541948   
O47      O      0.806820000000     0.824600000000     0.564550000000    -0.541784   
O48      O      0.858190000000     0.773230000000     0.492750000000    -0.541842   
O49      O      0.492370000000     0.173790000000     0.900710000000    -0.543761   
O50      O      0.564560000000     0.122820000000     0.849760000000    -0.543783   
O51      O      0.564560000000     0.173790000000     0.900710000000    -0.543831   
O52      O      0.492380000000     0.122820000000     0.849760000000    -0.543752   
O53      O      0.492580000000     0.165130000000     0.806970000000    -0.541619   
O54      O      0.564350000000     0.216520000000     0.858340000000    -0.541865   
O55      O      0.564350000000     0.165130000000     0.806980000000    -0.541985   
O56      O      0.492580000000     0.216510000000     0.858340000000    -0.541927   
O57      O      0.656420000000     0.315970000000     0.064750000000    -0.543785   
O58      O      0.707360000000     0.366920000000     0.992540000000    -0.543324   
O59      O      0.656410000000     0.315970000000     0.992540000000    -0.543344   
O60      O      0.707360000000     0.366920000000     0.064750000000    -0.543625   
O61      O      0.750120000000     0.324600000000     0.064540000000    -0.541605   
O62      O      0.698750000000     0.273230000000     0.992750000000    -0.541326   
O63      O      0.750120000000     0.324600000000     0.992750000000    -0.541424   
O64      O      0.698750000000     0.273230000000     0.064540000000    -0.541647   
O65      O      0.849550000000     0.530940000000     0.156600000000    -0.54384    
O66      O      0.900520000000     0.458770000000     0.207560000000    -0.543795   
O67      O      0.849550000000     0.458760000000     0.156600000000    -0.543851   
O68      O      0.900520000000     0.530940000000     0.207560000000    -0.54373    
O69      O      0.858200000000     0.530730000000     0.250340000000    -0.541806   
O70      O      0.806810000000     0.458970000000     0.198960000000    -0.541743   
O71      O      0.858200000000     0.458970000000     0.250340000000    -0.541788   
O72      O      0.806810000000     0.530730000000     0.198960000000    -0.541732   
O73      O      0.064560000000     0.622820000000     0.349760000000    -0.543749   
O74      O      0.992370000000     0.673790000000     0.400710000000    -0.543296   
O75      O      0.992380000000     0.622820000000     0.349760000000    -0.543356   
O76      O      0.064560000000     0.673790000000     0.400710000000    -0.543775   
O77      O      0.064350000000     0.716520000000     0.358340000000    -0.541756   
O78      O      0.992580000000     0.665120000000     0.306970000000    -0.541194   
O79      O      0.992580000000     0.716510000000     0.358340000000    -0.541422   
O80      O      0.064350000000     0.665130000000     0.306980000000    -0.541773   
O81      O      0.250120000000     0.824600000000     0.564540000000    -0.541831   
O82      O      0.198750000000     0.773230000000     0.492750000000    -0.541824   
O83      O      0.250120000000     0.824600000000     0.492740000000    -0.541771   
O84      O      0.198750000000     0.773230000000     0.564540000000    -0.54181    
O85      O      0.156410000000     0.815970000000     0.564750000000    -0.543727   
O86      O      0.207360000000     0.866920000000     0.492540000000    -0.543891   
O87      O      0.156410000000     0.815970000000     0.492540000000    -0.543866   
O88      O      0.207360000000     0.866920000000     0.564750000000    -0.543744   
O89      O      0.400520000000     0.958760000000     0.707560000000    -0.543633   
O90      O      0.349550000000     0.030940000000     0.656600000000    -0.543286   
O91      O      0.400520000000     0.030940000000     0.707560000000    -0.543387   
O92      O      0.349560000000     0.958760000000     0.656600000000    -0.543631   
O93      O      0.306810000000     0.958970000000     0.698960000000    -0.541593   
O94      O      0.358200000000     0.030730000000     0.750330000000    -0.541456   
O95      O      0.306810000000     0.030730000000     0.698960000000    -0.54123    
O96      O      0.358200000000     0.958970000000     0.750340000000    -0.541714   
O97      O      0.698750000000     0.030730000000     0.306950000000    -0.541346   
O98      O      0.750130000000     0.958970000000     0.358330000000    -0.541631   
O99      O      0.698740000000     0.958970000000     0.306960000000    -0.541993   
O100     O      0.750130000000     0.030730000000     0.358330000000    -0.541216   
O101     O      0.707390000000     0.030940000000     0.400690000000    -0.543419   
O102     O      0.656430000000     0.958770000000     0.349730000000    -0.543967   
O103     O      0.707390000000     0.958770000000     0.400690000000    -0.543737   
O104     O      0.656430000000     0.030940000000     0.349730000000    -0.543423   
O105     O      0.492590000000     0.824580000000     0.250310000000    -0.541982   
O106     O      0.564360000000     0.773190000000     0.198950000000    -0.541844   
O107     O      0.564360000000     0.824580000000     0.250310000000    -0.54207    
O108     O      0.492590000000     0.773190000000     0.198950000000    -0.541757   
O109     O      0.492390000000     0.815920000000     0.156580000000    -0.54373    
O110     O      0.564570000000     0.866890000000     0.207530000000    -0.543954   
O111     O      0.564570000000     0.815920000000     0.156580000000    -0.543743   
O112     O      0.492380000000     0.866880000000     0.207530000000    -0.543987   
O113     O      0.156430000000     0.458770000000     0.849730000000    -0.543913   
O114     O      0.207390000000     0.530940000000     0.900680000000    -0.544161   
O115     O      0.156430000000     0.530940000000     0.849730000000    -0.544054   
O116     O      0.207390000000     0.458770000000     0.900690000000    -0.543873   
O117     O      0.250130000000     0.458970000000     0.858330000000    -0.541749   
O118     O      0.198750000000     0.530730000000     0.806950000000    -0.541973   
O119     O      0.250130000000     0.530730000000     0.858330000000    -0.542127   
O120     O      0.198750000000     0.458970000000     0.806950000000    -0.541743   
O121     O      0.306830000000     0.665110000000     0.064540000000    -0.541943   
O122     O      0.358200000000     0.716480000000     0.992750000000    -0.541373   
O123     O      0.306830000000     0.665110000000     0.992750000000    -0.541455   
O124     O      0.358200000000     0.716480000000     0.064540000000    -0.541857   
O125     O      0.400530000000     0.673740000000     0.064750000000    -0.543879   
O126     O      0.349580000000     0.622790000000     0.992540000000    -0.543544   
O127     O      0.400530000000     0.673740000000     0.992540000000    -0.543448   
O128     O      0.349580000000     0.622790000000     0.064750000000    -0.543854   
O129     O      0.156430000000     0.530940000000     0.207560000000    -0.544111   
O130     O      0.207390000000     0.458770000000     0.156610000000    -0.544028   
O131     O      0.156430000000     0.458770000000     0.207560000000    -0.544032   
O132     O      0.207390000000     0.530940000000     0.156610000000    -0.544086   
O133     O      0.250130000000     0.530730000000     0.198960000000    -0.542066   
O134     O      0.198750000000     0.458980000000     0.250340000000    -0.541895   
O135     O      0.250130000000     0.458980000000     0.198960000000    -0.542009   
O136     O      0.198750000000     0.530740000000     0.250340000000    -0.54189    
O137     O      0.349580000000     0.366920000000     0.064750000000    -0.543784   
O138     O      0.400520000000     0.315970000000     0.992540000000    -0.543358   
O139     O      0.349580000000     0.366920000000     0.992540000000    -0.543214   
O140     O      0.400530000000     0.315970000000     0.064750000000    -0.543721   
O141     O      0.358190000000     0.273230000000     0.064540000000    -0.541799   
O142     O      0.306820000000     0.324600000000     0.992750000000    -0.541199   
O143     O      0.358190000000     0.273230000000     0.992750000000    -0.541324   
O144     O      0.306820000000     0.324600000000     0.064550000000    -0.541672   
O145     O      0.564350000000     0.165120000000     0.250310000000    -0.542063   
O146     O      0.492590000000     0.216510000000     0.198940000000    -0.541959   
O147     O      0.492590000000     0.165120000000     0.250310000000    -0.541975   
O148     O      0.564350000000     0.216510000000     0.198940000000    -0.541958   
O149     O      0.564560000000     0.173780000000     0.156580000000    -0.543967   
O150     O      0.492380000000     0.122820000000     0.207520000000    -0.544033   
O151     O      0.492380000000     0.173780000000     0.156580000000    -0.543958   
O152     O      0.564560000000     0.122820000000     0.207530000000    -0.544013   
O153     O      0.064360000000     0.273190000000     0.698950000000    -0.541673   
O154     O      0.992590000000     0.324580000000     0.750310000000    -0.54142    
O155     O      0.992590000000     0.273190000000     0.698940000000    -0.541312   
O156     O      0.064360000000     0.324580000000     0.750310000000    -0.541923   
O157     O      0.064570000000     0.366890000000     0.707530000000    -0.543754   
O158     O      0.992380000000     0.315920000000     0.656580000000    -0.543145   
O159     O      0.992380000000     0.366890000000     0.707530000000    -0.543238   
O160     O      0.064570000000     0.315920000000     0.656580000000    -0.543657   
O161     O      0.849580000000     0.122790000000     0.492540000000    -0.54384    
O162     O      0.900530000000     0.173740000000     0.564750000000    -0.54376    
O163     O      0.849580000000     0.122790000000     0.564750000000    -0.543699   
O164     O      0.900530000000     0.173740000000     0.492540000000    -0.543781   
O165     O      0.858190000000     0.216480000000     0.492750000000    -0.541731   
O166     O      0.806820000000     0.165110000000     0.564540000000    -0.541842   
O167     O      0.858200000000     0.216480000000     0.564540000000    -0.541923   
O168     O      0.806830000000     0.165110000000     0.492750000000    -0.541911   
O169     O      0.250120000000     0.165110000000     0.492740000000    -0.541837   
O170     O      0.198760000000     0.216480000000     0.564540000000    -0.541752   
O171     O      0.250120000000     0.165100000000     0.564540000000    -0.542021   
O172     O      0.198750000000     0.216480000000     0.492750000000    -0.541935   
O173     O      0.156420000000     0.173740000000     0.492540000000    -0.544035   
O174     O      0.207370000000     0.122790000000     0.564740000000    -0.544147   
O175     O      0.156420000000     0.173740000000     0.564750000000    -0.543994   
O176     O      0.207360000000     0.122790000000     0.492540000000    -0.543959   
O177     O      0.306810000000     0.030730000000     0.358330000000    -0.541364   
O178     O      0.358200000000     0.958970000000     0.306950000000    -0.541726   
O179     O      0.306810000000     0.958970000000     0.358330000000    -0.541722   
O180     O      0.358200000000     0.030730000000     0.306950000000    -0.541274   
O181     O      0.400520000000     0.030930000000     0.349730000000    -0.543449   
O182     O      0.349550000000     0.958770000000     0.400680000000    -0.543898   
O183     O      0.400510000000     0.958760000000     0.349730000000    -0.543939   
O184     O      0.349550000000     0.030940000000     0.400680000000    -0.543462   
O185     O      0.064560000000     0.315920000000     0.400710000000    -0.543751   
O186     O      0.992380000000     0.366890000000     0.349760000000    -0.543403   
O187     O      0.992380000000     0.315920000000     0.400710000000    -0.543384   
O188     O      0.064560000000     0.366890000000     0.349760000000    -0.543835   
O189     O      0.064360000000     0.324590000000     0.306980000000    -0.541836   
O190     O      0.992590000000     0.273200000000     0.358340000000    -0.541429   
O191     O      0.992590000000     0.324590000000     0.306980000000    -0.541495   
O192     O      0.064360000000     0.273200000000     0.358340000000    -0.541706   
V1       V      0.830790000000     0.494850000000     0.830920000000     1.38081    
V2       V      0.876730000000     0.494850000000     0.876900000000     1.39015    
V3       V      0.726160000000     0.692510000000     0.028640000000     1.37999    
V4       V      0.680200000000     0.646560000000     0.028640000000     1.38939    
V5       V      0.528470000000     0.797180000000     0.830940000000     1.38111    
V6       V      0.528470000000     0.843100000000     0.876930000000     1.39027    
V7       V      0.680210000000     0.994860000000     0.680390000000     1.38957    
V8       V      0.726160000000     0.994860000000     0.726370000000     1.38001    
V9       V      0.028470000000     0.646600000000     0.680350000000     1.38936    
V10      V      0.028470000000     0.692530000000     0.726350000000     1.37987    
V11      V      0.876750000000     0.843140000000     0.528650000000     1.39033    
V12      V      0.830790000000     0.797200000000     0.528650000000     1.38096    
V13      V      0.528470000000     0.146610000000     0.876930000000     1.39017    
V14      V      0.528470000000     0.192540000000     0.830940000000     1.38114    
V15      V      0.680190000000     0.343140000000     0.028640000000     1.38896    
V16      V      0.726150000000     0.297200000000     0.028640000000     1.38003    
V17      V      0.876730000000     0.494850000000     0.180380000000     1.38997    
V18      V      0.830790000000     0.494850000000     0.226370000000     1.38087    
V19      V      0.028470000000     0.646610000000     0.376930000000     1.38897    
V20      V      0.028470000000     0.692540000000     0.330940000000     1.37988    
V21      V      0.226150000000     0.797200000000     0.528640000000     1.38101    
V22      V      0.180190000000     0.843140000000     0.528640000000     1.38981    
V23      V      0.376730000000     0.994850000000     0.680380000000     1.38876    
V24      V      0.330790000000     0.994850000000     0.726370000000     1.37987    
V25      V      0.726150000000     0.994850000000     0.330920000000     1.37999    
V26      V      0.680210000000     0.994860000000     0.376910000000     1.38928    
V27      V      0.528480000000     0.797170000000     0.226350000000     1.38131    
V28      V      0.528480000000     0.843100000000     0.180360000000     1.38992    
V29      V      0.180210000000     0.494860000000     0.876910000000     1.39064    
V30      V      0.226160000000     0.494860000000     0.830920000000     1.38118    
V31      V      0.330790000000     0.692510000000     0.028650000000     1.38025    
V32      V      0.376760000000     0.646560000000     0.028640000000     1.38918    
V33      V      0.180210000000     0.494860000000     0.180390000000     1.39053    
V34      V      0.226160000000     0.494860000000     0.226370000000     1.38132    
V35      V      0.376750000000     0.343140000000     0.028650000000     1.389      
V36      V      0.330790000000     0.297200000000     0.028650000000     1.37984    
V37      V      0.528470000000     0.192530000000     0.226350000000     1.38144    
V38      V      0.528470000000     0.146600000000     0.180350000000     1.39067    
V39      V      0.028480000000     0.297170000000     0.726350000000     1.3801     
V40      V      0.028480000000     0.343100000000     0.680360000000     1.38864    
V41      V      0.876750000000     0.146570000000     0.528640000000     1.39019    
V42      V      0.830790000000     0.192510000000     0.528650000000     1.38111    
V43      V      0.226160000000     0.192510000000     0.528640000000     1.38116    
V44      V      0.180190000000     0.146560000000     0.528640000000     1.39066    
V45      V      0.330790000000     0.994850000000     0.330920000000     1.37956    
V46      V      0.376730000000     0.994850000000     0.376900000000     1.38945    
V47      V      0.028470000000     0.343100000000     0.376930000000     1.38902    
V48      V      0.028470000000     0.297180000000     0.330940000000     1.38003    


