data_structure

_audit_creation_method RASPA-1.0
_audit_creation_date 2023-5-22
_audit_author_name 'Poobodin Mano'

_cell_length_a    32.4614
_cell_length_b    32.4527
_cell_length_c    43.4136
_cell_angle_alpha 90
_cell_angle_beta  90
_cell_angle_gamma 90
_cell_volume      45734.5

_symmetry_cell_setting          triclinic
_symmetry_space_group_name_Hall 'P 1'
_symmetry_space_group_name_H-M  'P 1'
_symmetry_Int_Tables_number     1

_symmetry_equiv_pos_as_xyz 'x,y,z'

loop_
_atom_site_label
_atom_site_type_symbol
_atom_site_fract_x
_atom_site_fract_y
_atom_site_fract_z
_atom_site_charge
C1       C      0.257930000000     0.003460000000     0.498960000000     0.42263    
C2       C      0.413640000000     0.003140000000     0.500190000000     0.422416   
C3       C      0.336300000000     0.003360000000     0.441320000000     0.422335   
C4       C      0.335090000000     0.003190000000     0.057860000000     0.421802   
C5       C      0.257930000000     0.003310000000     0.249580000000     0.422807   
C6       C      0.413650000000     0.003140000000     0.249870000000     0.422491   
C7       C      0.335730000000     0.003320000000     0.191340000000     0.422069   
C8       C      0.335670000000     0.003150000000     0.307890000000     0.422164   
C9       C      0.002420000000     0.747970000000     0.505480000000     0.42304    
C10      C      0.002860000000     0.592230000000     0.504020000000     0.422256   
C11      C      0.002760000000     0.670800000000     0.446570000000     0.42193    
C12      C      0.002600000000     0.669580000000     0.063120000000     0.421969   
C13      C      0.002440000000     0.747980000000     0.255510000000     0.422754   
C14      C      0.003130000000     0.592230000000     0.254000000000     0.42247    
C15      C      0.002870000000     0.670830000000     0.196570000000     0.421908   
C16      C      0.002700000000     0.669560000000     0.313120000000     0.421969   
C17      C      0.747820000000     0.002610000000     0.503810000000     0.422716   
C18      C      0.592110000000     0.002930000000     0.502600000000     0.422399   
C19      C      0.670660000000     0.002870000000     0.444910000000     0.421824   
C20      C      0.669460000000     0.002710000000     0.061460000000     0.422058   
C21      C      0.747790000000     0.002760000000     0.253190000000     0.422863   
C22      C      0.592080000000     0.002930000000     0.252900000000     0.422497   
C23      C      0.670070000000     0.002930000000     0.194890000000     0.421844   
C24      C      0.670000000000     0.002740000000     0.311440000000     0.422003   
C25      C      0.080610000000     0.003100000000     0.999700000000     0.425375   
C26      C      0.925140000000     0.002960000000     0.003040000000     0.425344   
C27      C      0.002990000000     0.080750000000     0.499090000000     0.425779   
C28      C      0.002770000000     0.925310000000     0.503640000000     0.425259   
C29      C      0.080580000000     0.003080000000     0.250740000000     0.425143   
C30      C      0.925080000000     0.003000000000     0.252020000000     0.425246   
C31      C      0.002670000000     0.080750000000     0.249090000000     0.425386   
C32      C      0.002720000000     0.925320000000     0.253670000000     0.425169   
C33      C      0.003430000000     0.258090000000     0.497240000000     0.422949   
C34      C      0.003060000000     0.413840000000     0.498710000000     0.422471   
C35      C      0.003880000000     0.336500000000     0.439600000000     0.422025   
C36      C      0.002530000000     0.335250000000     0.056150000000     0.421926   
C37      C      0.002730000000     0.258080000000     0.247260000000     0.422794   
C38      C      0.003300000000     0.413830000000     0.248700000000     0.422329   
C39      C      0.002390000000     0.336470000000     0.189600000000     0.42182    
C40      C      0.003740000000     0.335270000000     0.306150000000     0.422103   
C41      C      0.966770000000     0.336600000000     0.388980000000     0.00205803 
C42      C      0.004060000000     0.336310000000     0.405460000000    -0.108591   
C43      C      0.041330000000     0.335560000000     0.388970000000    -0.000296524
C44      C      0.041300000000     0.335120000000     0.356750000000    -0.000400675
C45      C      0.003980000000     0.335430000000     0.340290000000    -0.108563   
C46      C      0.966730000000     0.336160000000     0.356810000000     0.00200189 
C47      C      0.964980000000     0.335140000000     0.106750000000     0.00226196 
C48      C      0.002300000000     0.335400000000     0.090290000000    -0.108461   
C49      C      0.039540000000     0.336090000000     0.106810000000    -0.00048794 
C50      C      0.039500000000     0.336520000000     0.138980000000    -0.000525026
C51      C      0.002220000000     0.336270000000     0.155460000000    -0.10842    
C52      C      0.964940000000     0.335570000000     0.138970000000     0.00220195 
C53      C      0.975640000000     0.148240000000     0.267350000000     0.0047817  
C54      C      0.002200000000     0.126040000000     0.247970000000    -0.10997    
C55      C      0.028720000000     0.147460000000     0.228080000000     0.00151515 
C56      C      0.029360000000     0.190570000000     0.228130000000     0.000944241
C57      C      0.002440000000     0.212740000000     0.247280000000    -0.108693   
C58      C      0.975250000000     0.191270000000     0.266620000000     0.00354443 
C59      C      0.976960000000     0.147540000000     0.478200000000     0.00425988 
C60      C      0.003570000000     0.126050000000     0.497980000000    -0.110092   
C61      C      0.030370000000     0.148170000000     0.017220000000     0.00222051 
C62      C      0.030910000000     0.191200000000     0.016460000000     0.00108076 
C63      C      0.003630000000     0.212750000000     0.497240000000    -0.108784   
C64      C      0.976480000000     0.190650000000     0.478240000000     0.00370589 
C65      C      0.815120000000     0.029680000000     0.272200000000     0.0010215  
C66      C      0.793110000000     0.002720000000     0.253000000000    -0.108607   
C67      C      0.814730000000     0.975820000000     0.233510000000     0.0037292  
C68      C      0.857780000000     0.976420000000     0.232800000000     0.00480719 
C69      C      0.879780000000     0.002880000000     0.252380000000    -0.109503   
C70      C      0.858190000000     0.029240000000     0.272290000000     0.0019605  
C71      C      0.670320000000     0.965480000000     0.362100000000     0.00207319 
C72      C      0.670220000000     0.002750000000     0.345590000000    -0.108422   
C73      C      0.670410000000     0.040070000000     0.362060000000    -0.000479907
C74      C      0.670650000000     0.040130000000     0.394250000000    -0.000476473
C75      C      0.670680000000     0.002870000000     0.410770000000    -0.108527   
C76      C      0.670530000000     0.965540000000     0.394300000000     0.00215454 
C77      C      0.669520000000     0.965490000000     0.112110000000     0.00219373 
C78      C      0.669470000000     0.002740000000     0.095600000000    -0.108443   
C79      C      0.669620000000     0.040080000000     0.112050000000    -0.000334723
C80      C      0.669850000000     0.040160000000     0.144240000000    -0.000416671
C81      C      0.669910000000     0.002900000000     0.160750000000    -0.108416   
C82      C      0.669730000000     0.965570000000     0.144300000000     0.00219316 
C83      C      0.815050000000     0.029770000000     0.023000000000     0.00117678 
C84      C      0.793150000000     0.002440000000     0.504000000000    -0.108743   
C85      C      0.814900000000     0.974980000000     0.485050000000     0.00363524 
C86      C      0.857930000000     0.975480000000     0.484570000000     0.00465493 
C87      C      0.879840000000     0.002440000000     0.003820000000    -0.109288   
C88      C      0.858150000000     0.029260000000     0.023320000000     0.00139603 
C89      C      0.040570000000     0.524590000000     0.251990000000    -0.000288702
C90      C      0.003250000000     0.546580000000     0.252810000000    -0.108388   
C91      C      0.966000000000     0.524500000000     0.252150000000     0.00235017 
C92      C      0.966040000000     0.481490000000     0.250690000000     0.00229934 
C93      C      0.003340000000     0.459480000000     0.249870000000    -0.108315   
C94      C      0.040610000000     0.481550000000     0.250540000000    -0.000329099
C95      C      0.974680000000     0.814860000000     0.236470000000     0.00372191 
C96      C      0.002170000000     0.793320000000     0.255530000000    -0.108788   
C97      C      0.029500000000     0.815440000000     0.274380000000     0.00119453 
C98      C      0.028990000000     0.858550000000     0.274420000000     0.00134289 
C99      C      0.002160000000     0.880030000000     0.254800000000    -0.109477   
C100     C      0.975170000000     0.857890000000     0.235710000000     0.00461651 
C101     C      0.965700000000     0.481460000000     0.500890000000     0.00229934 
C102     C      0.003000000000     0.459490000000     0.499900000000    -0.108423   
C103     C      0.040270000000     0.481570000000     0.000390000000     0.000423705
C104     C      0.040230000000     0.524600000000     0.001840000000    -0.000626779
C105     C      0.002920000000     0.546580000000     0.502840000000    -0.108271   
C106     C      0.965660000000     0.524490000000     0.502340000000     0.00229158 
C107     C      0.965470000000     0.670300000000     0.395950000000     0.00218314 
C108     C      0.002770000000     0.670640000000     0.412430000000    -0.108514   
C109     C      0.040040000000     0.670550000000     0.395930000000    -0.000436905
C110     C      0.040000000000     0.670100000000     0.363740000000    -0.000406582
C111     C      0.002700000000     0.669750000000     0.347260000000    -0.108458   
C112     C      0.965430000000     0.669870000000     0.363760000000     0.00212716 
C113     C      0.039970000000     0.670130000000     0.113710000000    -0.000394662
C114     C      0.002640000000     0.669790000000     0.097260000000    -0.108438   
C115     C      0.965400000000     0.669930000000     0.113790000000     0.00210989 
C116     C      0.965500000000     0.670350000000     0.145990000000     0.00221288 
C117     C      0.002830000000     0.670690000000     0.162430000000    -0.108499   
C118     C      0.040070000000     0.670580000000     0.145900000000    -0.000458017
C119     C      0.029440000000     0.815420000000     0.024410000000     0.00110721 
C120     C      0.002190000000     0.793320000000     0.505480000000    -0.10876    
C121     C      0.974800000000     0.814850000000     0.486350000000     0.0037385  
C122     C      0.975310000000     0.857890000000     0.485590000000     0.00467697 
C123     C      0.002200000000     0.880020000000     0.504760000000    -0.109489   
C124     C      0.028930000000     0.858530000000     0.024450000000     0.00148066 
C125     C      0.481290000000     0.965770000000     0.251280000000     0.00237984 
C126     C      0.459300000000     0.003080000000     0.250520000000    -0.10847    
C127     C      0.481400000000     0.040350000000     0.250640000000    -0.000272906
C128     C      0.524440000000     0.040300000000     0.251500000000    -0.000203593
C129     C      0.546430000000     0.002990000000     0.252260000000    -0.108463   
C130     C      0.524330000000     0.965720000000     0.252140000000     0.00229692 
C131     C      0.190600000000     0.975870000000     0.230990000000     0.00371363 
C132     C      0.212600000000     0.003350000000     0.249770000000    -0.109052   
C133     C      0.190970000000     0.030780000000     0.268830000000     0.00111932 
C134     C      0.147920000000     0.030210000000     0.269530000000     0.00119747 
C135     C      0.125910000000     0.003200000000     0.250370000000    -0.109858   
C136     C      0.147530000000     0.976290000000     0.230890000000     0.00393114 
C137     C      0.481400000000     0.040350000000     0.500750000000    -0.000263299
C138     C      0.459310000000     0.003080000000     0.500750000000    -0.108302   
C139     C      0.481300000000     0.965770000000     0.501400000000     0.00229726 
C140     C      0.524350000000     0.965720000000     0.502040000000     0.00230315 
C141     C      0.546450000000     0.002990000000     0.502030000000    -0.108346   
C142     C      0.524450000000     0.040310000000     0.501390000000    -0.000323995
C143     C      0.336130000000     0.966000000000     0.390730000000     0.00220371 
C144     C      0.336290000000     0.003330000000     0.407180000000    -0.108573   
C145     C      0.336220000000     0.040590000000     0.390660000000    -0.000400356
C146     C      0.336010000000     0.040510000000     0.358470000000    -0.000320561
C147     C      0.335830000000     0.003170000000     0.342020000000    -0.108664   
C148     C      0.335900000000     0.965920000000     0.358540000000     0.00223934 
C149     C      0.335200000000     0.040520000000     0.108480000000    -0.000523385
C150     C      0.335060000000     0.003200000000     0.092010000000    -0.108354   
C151     C      0.335090000000     0.965930000000     0.108520000000     0.00200767 
C152     C      0.335330000000     0.965990000000     0.140720000000     0.00215852 
C153     C      0.335520000000     0.003310000000     0.157190000000    -0.108517   
C154     C      0.335420000000     0.040580000000     0.140680000000    -0.000507062
C155     C      0.190700000000     0.976290000000     0.479760000000     0.00355672 
C156     C      0.212600000000     0.003630000000     0.498760000000    -0.108643   
C157     C      0.190850000000     0.031100000000     0.517700000000     0.000700983
C158     C      0.147820000000     0.030590000000     0.018170000000     0.00218269 
C159     C      0.125910000000     0.003620000000     0.998920000000    -0.110209   
C160     C      0.147610000000     0.976800000000     0.979440000000     0.00433483 
C161     C      0.257930000000     0.003460000000     0.998960000000     0.422667   
C162     C      0.413640000000     0.003140000000     0.000190000000     0.422613   
C163     C      0.336300000000     0.003360000000     0.941320000000     0.422322   
C164     C      0.335090000000     0.003190000000     0.557860000000     0.421831   
C165     C      0.257930000000     0.003310000000     0.749580000000     0.422808   
C166     C      0.413650000000     0.003140000000     0.749870000000     0.422491   
C167     C      0.335730000000     0.003320000000     0.691340000000     0.422066   
C168     C      0.335670000000     0.003150000000     0.807890000000     0.422166   
C169     C      0.002420000000     0.747970000000     0.005480000000     0.423035   
C170     C      0.002860000000     0.592230000000     0.004020000000     0.422245   
C171     C      0.002760000000     0.670800000000     0.946570000000     0.421967   
C172     C      0.002600000000     0.669580000000     0.563120000000     0.421939   
C173     C      0.002440000000     0.747980000000     0.755510000000     0.422754   
C174     C      0.003130000000     0.592230000000     0.754000000000     0.422469   
C175     C      0.002870000000     0.670830000000     0.696570000000     0.421905   
C176     C      0.002700000000     0.669560000000     0.813120000000     0.421966   
C177     C      0.747820000000     0.002610000000     0.003810000000     0.422715   
C178     C      0.592110000000     0.002930000000     0.002600000000     0.422441   
C179     C      0.670660000000     0.002870000000     0.944910000000     0.421865   
C180     C      0.669460000000     0.002710000000     0.561460000000     0.422033   
C181     C      0.747790000000     0.002760000000     0.753190000000     0.422865   
C182     C      0.592080000000     0.002930000000     0.752900000000     0.422497   
C183     C      0.670070000000     0.002930000000     0.694890000000     0.421845   
C184     C      0.670000000000     0.002740000000     0.811440000000     0.422003   
C185     C      0.080610000000     0.003100000000     0.499700000000     0.425493   
C186     C      0.925140000000     0.002960000000     0.503040000000     0.425151   
C187     C      0.002990000000     0.080750000000     0.999090000000     0.425658   
C188     C      0.002770000000     0.925310000000     0.003640000000     0.42547    
C189     C      0.080580000000     0.003080000000     0.750740000000     0.425143   
C190     C      0.925080000000     0.003000000000     0.752020000000     0.425246   
C191     C      0.002670000000     0.080750000000     0.749090000000     0.425384   
C192     C      0.002720000000     0.925320000000     0.753670000000     0.42517    
C193     C      0.003430000000     0.258090000000     0.997240000000     0.422996   
C194     C      0.003060000000     0.413840000000     0.998710000000     0.422638   
C195     C      0.003880000000     0.336500000000     0.939600000000     0.422021   
C196     C      0.002530000000     0.335250000000     0.556150000000     0.421942   
C197     C      0.002730000000     0.258080000000     0.747260000000     0.422798   
C198     C      0.003300000000     0.413830000000     0.748700000000     0.422327   
C199     C      0.002390000000     0.336470000000     0.689600000000     0.421815   
C200     C      0.003740000000     0.335270000000     0.806150000000     0.422103   
C201     C      0.966770000000     0.336600000000     0.888980000000     0.00205009 
C202     C      0.004060000000     0.336310000000     0.905460000000    -0.108587   
C203     C      0.041330000000     0.335560000000     0.888970000000    -0.000300465
C204     C      0.041300000000     0.335120000000     0.856750000000    -0.000401013
C205     C      0.003980000000     0.335430000000     0.840290000000    -0.108563   
C206     C      0.966730000000     0.336160000000     0.856810000000     0.00199998 
C207     C      0.964980000000     0.335140000000     0.606750000000     0.00227343 
C208     C      0.002300000000     0.335400000000     0.590290000000    -0.108503   
C209     C      0.039540000000     0.336090000000     0.606810000000    -0.000482595
C210     C      0.039500000000     0.336520000000     0.638980000000    -0.000538411
C211     C      0.002220000000     0.336270000000     0.655460000000    -0.108424   
C212     C      0.964940000000     0.335570000000     0.638970000000     0.00219244 
C213     C      0.975640000000     0.148240000000     0.767350000000     0.00477629 
C214     C      0.002200000000     0.126040000000     0.747970000000    -0.109966   
C215     C      0.028720000000     0.147460000000     0.728080000000     0.00149857 
C216     C      0.029360000000     0.190570000000     0.728130000000     0.000973028
C217     C      0.002440000000     0.212740000000     0.747280000000    -0.108708   
C218     C      0.975250000000     0.191270000000     0.766620000000     0.00355132 
C219     C      0.976960000000     0.147540000000     0.978200000000     0.00424141 
C220     C      0.003570000000     0.126050000000     0.997980000000    -0.110178   
C221     C      0.030370000000     0.148170000000     0.517220000000     0.00209146 
C222     C      0.030910000000     0.191200000000     0.516460000000     0.000859262
C223     C      0.003630000000     0.212750000000     0.997240000000    -0.108947   
C224     C      0.976480000000     0.190650000000     0.978240000000     0.0037403  
C225     C      0.815120000000     0.029680000000     0.772200000000     0.00102098 
C226     C      0.793110000000     0.002720000000     0.753000000000    -0.108609   
C227     C      0.814730000000     0.975820000000     0.733510000000     0.00372814 
C228     C      0.857780000000     0.976420000000     0.732800000000     0.00480526 
C229     C      0.879780000000     0.002880000000     0.752380000000    -0.109503   
C230     C      0.858190000000     0.029240000000     0.772290000000     0.00195923 
C231     C      0.670320000000     0.965480000000     0.862100000000     0.00205996 
C232     C      0.670220000000     0.002750000000     0.845590000000    -0.108417   
C233     C      0.670410000000     0.040070000000     0.862060000000    -0.000489817
C234     C      0.670650000000     0.040130000000     0.894250000000    -0.000472042
C235     C      0.670680000000     0.002870000000     0.910770000000    -0.108555   
C236     C      0.670530000000     0.965540000000     0.894300000000     0.00215332 
C237     C      0.669520000000     0.965490000000     0.612110000000     0.0021919  
C238     C      0.669470000000     0.002740000000     0.595600000000    -0.108447   
C239     C      0.669620000000     0.040080000000     0.612050000000    -0.000339609
C240     C      0.669850000000     0.040160000000     0.644240000000    -0.000418451
C241     C      0.669910000000     0.002900000000     0.660750000000    -0.108425   
C242     C      0.669730000000     0.965570000000     0.644310000000     0.00219708 
C243     C      0.815050000000     0.029770000000     0.523000000000     0.00118948 
C244     C      0.793150000000     0.002440000000     0.004000000000    -0.108524   
C245     C      0.814900000000     0.974980000000     0.985050000000     0.00349268 
C246     C      0.857930000000     0.975480000000     0.984560000000     0.00446607 
C247     C      0.879840000000     0.002440000000     0.503820000000    -0.109479   
C248     C      0.858150000000     0.029260000000     0.523320000000     0.00138857 
C249     C      0.040570000000     0.524590000000     0.751990000000    -0.000291265
C250     C      0.003250000000     0.546580000000     0.752810000000    -0.108393   
C251     C      0.966000000000     0.524500000000     0.752150000000     0.00234866 
C252     C      0.966040000000     0.481490000000     0.750690000000     0.00229802 
C253     C      0.003340000000     0.459480000000     0.749870000000    -0.108319   
C254     C      0.040610000000     0.481550000000     0.750540000000    -0.000331575
C255     C      0.974680000000     0.814860000000     0.736470000000     0.00372221 
C256     C      0.002170000000     0.793320000000     0.755530000000    -0.108791   
C257     C      0.029500000000     0.815440000000     0.774380000000     0.00119369 
C258     C      0.028990000000     0.858550000000     0.774420000000     0.00134211 
C259     C      0.002160000000     0.880030000000     0.754800000000    -0.10948    
C260     C      0.975170000000     0.857890000000     0.735710000000     0.00461678 
C261     C      0.965700000000     0.481460000000     0.000890000000     0.00271426 
C262     C      0.003000000000     0.459490000000     0.999900000000    -0.108967   
C263     C      0.040270000000     0.481570000000     0.500390000000    -0.000204761
C264     C      0.040230000000     0.524600000000     0.501840000000    -0.000384991
C265     C      0.002920000000     0.546580000000     0.002840000000    -0.10805    
C266     C      0.965660000000     0.524490000000     0.002340000000     0.00210574 
C267     C      0.965470000000     0.670300000000     0.895950000000     0.00218419 
C268     C      0.002770000000     0.670640000000     0.912430000000    -0.108546   
C269     C      0.040040000000     0.670550000000     0.895930000000    -0.000432622
C270     C      0.040000000000     0.670100000000     0.863740000000    -0.000416534
C271     C      0.002700000000     0.669750000000     0.847260000000    -0.108454   
C272     C      0.965430000000     0.669870000000     0.863760000000     0.00211562 
C273     C      0.039970000000     0.670130000000     0.613710000000    -0.000399165
C274     C      0.002640000000     0.669790000000     0.597260000000    -0.108447   
C275     C      0.965400000000     0.669930000000     0.613790000000     0.00211206 
C276     C      0.965500000000     0.670350000000     0.645990000000     0.00221239 
C277     C      0.002830000000     0.670690000000     0.662430000000    -0.108507   
C278     C      0.040070000000     0.670580000000     0.645900000000    -0.000462181
C279     C      0.029440000000     0.815420000000     0.524410000000     0.00113479 
C280     C      0.002190000000     0.793320000000     0.005480000000    -0.108524   
C281     C      0.974800000000     0.814850000000     0.986350000000     0.00355864 
C282     C      0.975310000000     0.857890000000     0.985590000000     0.00455496 
C283     C      0.002200000000     0.880020000000     0.004760000000    -0.109336   
C284     C      0.028930000000     0.858530000000     0.524450000000     0.00145414 
C285     C      0.481290000000     0.965770000000     0.751280000000     0.00237679 
C286     C      0.459300000000     0.003080000000     0.750520000000    -0.108473   
C287     C      0.481400000000     0.040350000000     0.750640000000    -0.000275333
C288     C      0.524440000000     0.040300000000     0.751500000000    -0.000206073
C289     C      0.546430000000     0.002990000000     0.752260000000    -0.108466   
C290     C      0.524330000000     0.965720000000     0.752140000000     0.00229374 
C291     C      0.190600000000     0.975870000000     0.730990000000     0.00371232 
C292     C      0.212600000000     0.003350000000     0.749770000000    -0.109054   
C293     C      0.190970000000     0.030780000000     0.768830000000     0.00111901 
C294     C      0.147920000000     0.030210000000     0.769530000000     0.00119659 
C295     C      0.125910000000     0.003200000000     0.750370000000    -0.109858   
C296     C      0.147530000000     0.976290000000     0.730890000000     0.003929   
C297     C      0.481400000000     0.040350000000     0.000750000000    -0.000204096
C298     C      0.459310000000     0.003080000000     0.000750000000    -0.108303   
C299     C      0.481300000000     0.965770000000     0.001400000000     0.00233886 
C300     C      0.524350000000     0.965720000000     0.002040000000     0.00231337 
C301     C      0.546450000000     0.002990000000     0.002030000000    -0.108296   
C302     C      0.524450000000     0.040310000000     0.001390000000    -0.00030774 
C303     C      0.336130000000     0.966000000000     0.890730000000     0.00219114 
C304     C      0.336290000000     0.003330000000     0.907180000000    -0.108569   
C305     C      0.336220000000     0.040590000000     0.890660000000    -0.000406153
C306     C      0.336010000000     0.040510000000     0.858470000000    -0.000321694
C307     C      0.335830000000     0.003170000000     0.842020000000    -0.108664   
C308     C      0.335900000000     0.965920000000     0.858540000000     0.00223515 
C309     C      0.335200000000     0.040520000000     0.608480000000    -0.000516312
C310     C      0.335060000000     0.003200000000     0.592010000000    -0.108391   
C311     C      0.335090000000     0.965930000000     0.608520000000     0.00201976 
C312     C      0.335330000000     0.965990000000     0.640720000000     0.00214775 
C313     C      0.335520000000     0.003310000000     0.657190000000    -0.108518   
C314     C      0.335420000000     0.040580000000     0.640680000000    -0.000519531
C315     C      0.190700000000     0.976290000000     0.979760000000     0.00357962 
C316     C      0.212600000000     0.003630000000     0.998760000000    -0.108785   
C317     C      0.190850000000     0.031100000000     0.017700000000     0.000886648
C318     C      0.147820000000     0.030590000000     0.518170000000     0.00204024 
C319     C      0.125910000000     0.003620000000     0.498920000000    -0.11012    
C320     C      0.147610000000     0.976800000000     0.479440000000     0.00434961 
H1       H      0.937460000000     0.337130000000     0.400890000000     0.0381913  
H2       H      0.070630000000     0.335290000000     0.400910000000     0.038535   
H3       H      0.070560000000     0.334590000000     0.344770000000     0.0385711  
H4       H      0.937400000000     0.336430000000     0.344930000000     0.0381644  
H5       H      0.935710000000     0.334640000000     0.094770000000     0.0385113  
H6       H      0.068880000000     0.336330000000     0.094930000000     0.0383174  
H7       H      0.068810000000     0.337020000000     0.150890000000     0.0383551  
H8       H      0.935650000000     0.335330000000     0.150910000000     0.0385223  
H9       H      0.954860000000     0.132260000000     0.282810000000     0.0344676  
H10      H      0.049590000000     0.130870000000     0.213060000000     0.0347126  
H11      H      0.050460000000     0.206580000000     0.212950000000     0.0350714  
H12      H      0.954330000000     0.207800000000     0.281640000000     0.0353245  
H13      H      0.955910000000     0.131000000000     0.463290000000     0.0350576  
H14      H      0.051250000000     0.132130000000     0.032580000000     0.0341171  
H15      H      0.052010000000     0.207660000000     0.031390000000     0.0352048  
H16      H      0.955300000000     0.206720000000     0.463140000000     0.0352445  
H17      H      0.798990000000     0.050580000000     0.287480000000     0.0350552  
H18      H      0.798300000000     0.954900000000     0.218420000000     0.0354239  
H19      H      0.873910000000     0.955730000000     0.217360000000     0.0347975  
H20      H      0.874630000000     0.050000000000     0.287490000000     0.0341987  
H21      H      0.670200000000     0.936160000000     0.350190000000     0.0384147  
H22      H      0.670370000000     0.069370000000     0.350110000000     0.0383576  
H23      H      0.670740000000     0.069450000000     0.406170000000     0.0384226  
H24      H      0.670560000000     0.936240000000     0.406240000000     0.0382779  
H25      H      0.669430000000     0.936160000000     0.100210000000     0.0384418  
H26      H      0.669610000000     0.069370000000     0.100090000000     0.0385366  
H27      H      0.669960000000     0.069490000000     0.156140000000     0.0385946  
H28      H      0.669760000000     0.936280000000     0.156260000000     0.0383355  
H29      H      0.798830000000     0.051080000000     0.037900000000     0.035506   
H30      H      0.798590000000     0.953740000000     0.470140000000     0.0355183  
H31      H      0.874120000000     0.954450000000     0.469420000000     0.0349459  
H32      H      0.874510000000     0.050430000000     0.038240000000     0.0356383  
H33      H      0.069850000000     0.540580000000     0.252430000000     0.0383688  
H34      H      0.936670000000     0.540400000000     0.252700000000     0.0383112  
H35      H      0.936740000000     0.465530000000     0.250250000000     0.0383504  
H36      H      0.069920000000     0.465620000000     0.249980000000     0.0383558  
H37      H      0.953450000000     0.798380000000     0.221660000000     0.0355942  
H38      H      0.050850000000     0.799380000000     0.289350000000     0.0353191  
H39      H      0.050180000000     0.875090000000     0.289220000000     0.035414   
H40      H      0.954140000000     0.873910000000     0.220470000000     0.0351151  
H41      H      0.936420000000     0.465480000000     0.500590000000     0.038264   
H42      H      0.069590000000     0.465670000000     0.999690000000     0.0381678  
H43      H      0.069510000000     0.540590000000     0.002140000000     0.0385448  
H44      H      0.936340000000     0.540390000000     0.503040000000     0.0383196  
H45      H      0.936170000000     0.670340000000     0.407890000000     0.0382742  
H46      H      0.069350000000     0.670780000000     0.407850000000     0.0384912  
H47      H      0.069300000000     0.670070000000     0.351800000000     0.0384323  
H48      H      0.936120000000     0.669640000000     0.351840000000     0.0384201  
H49      H      0.069250000000     0.670090000000     0.101740000000     0.0384505  
H50      H      0.936070000000     0.669710000000     0.101900000000     0.038438   
H51      H      0.936220000000     0.670410000000     0.157950000000     0.0383019  
H52      H      0.069400000000     0.670800000000     0.157790000000     0.0384775  
H53      H      0.050700000000     0.799360000000     0.039440000000     0.0353352  
H54      H      0.953630000000     0.798380000000     0.471480000000     0.0355292  
H55      H      0.954350000000     0.873910000000     0.470300000000     0.0349456  
H56      H      0.050050000000     0.875070000000     0.039310000000     0.0353155  
H57      H      0.465300000000     0.936470000000     0.251250000000     0.038266   
H58      H      0.465490000000     0.069680000000     0.250100000000     0.0383935  
H59      H      0.540430000000     0.069600000000     0.251530000000     0.0383875  
H60      H      0.540240000000     0.936390000000     0.252680000000     0.038285   
H61      H      0.206710000000     0.954550000000     0.216030000000     0.0353964  
H62      H      0.207380000000     0.052120000000     0.283600000000     0.0354017  
H63      H      0.131810000000     0.051330000000     0.284650000000     0.0356411  
H64      H      0.131110000000     0.955100000000     0.216010000000     0.0357236  
H65      H      0.465490000000     0.069680000000     0.500270000000     0.0384115  
H66      H      0.465310000000     0.936470000000     0.501440000000     0.0382727  
H67      H      0.540260000000     0.936390000000     0.502520000000     0.038299   
H68      H      0.540440000000     0.069600000000     0.501350000000     0.0384003  
H69      H      0.336150000000     0.936700000000     0.402680000000     0.0382873  
H70      H      0.336330000000     0.069920000000     0.402570000000     0.0385438  
H71      H      0.335970000000     0.069800000000     0.346520000000     0.0384497  
H72      H      0.335780000000     0.936580000000     0.346640000000     0.0383338  
H73      H      0.335180000000     0.069820000000     0.096540000000     0.038351   
H74      H      0.334990000000     0.936610000000     0.096610000000     0.0383917  
H75      H      0.335360000000     0.936690000000     0.152660000000     0.0382582  
H76      H      0.335540000000     0.069900000000     0.152590000000     0.0383975  
H77      H      0.206930000000     0.954970000000     0.464870000000     0.0354851  
H78      H      0.207150000000     0.052340000000     0.532600000000     0.0352286  
H79      H      0.131620000000     0.051630000000     0.033310000000     0.0341087  
H80      H      0.131250000000     0.955620000000     0.964520000000     0.0352877  
H81      H      0.937460000000     0.337130000000     0.900890000000     0.0381889  
H82      H      0.070630000000     0.335290000000     0.900910000000     0.0385335  
H83      H      0.070560000000     0.334590000000     0.844770000000     0.0385687  
H84      H      0.937400000000     0.336430000000     0.844930000000     0.0381615  
H85      H      0.935710000000     0.334640000000     0.594770000000     0.0384816  
H86      H      0.068880000000     0.336330000000     0.594930000000     0.0382875  
H87      H      0.068810000000     0.337020000000     0.650890000000     0.0383455  
H88      H      0.935650000000     0.335330000000     0.650910000000     0.0385128  
H89      H      0.954860000000     0.132260000000     0.782810000000     0.0344673  
H90      H      0.049590000000     0.130870000000     0.713060000000     0.0347124  
H91      H      0.050460000000     0.206580000000     0.712940000000     0.0350517  
H92      H      0.954330000000     0.207800000000     0.781640000000     0.0353207  
H93      H      0.955910000000     0.131000000000     0.963290000000     0.035052   
H94      H      0.051250000000     0.132130000000     0.532580000000     0.0341055  
H95      H      0.052010000000     0.207660000000     0.531380000000     0.0352083  
H96      H      0.955300000000     0.206720000000     0.963140000000     0.0352314  
H97      H      0.798990000000     0.050580000000     0.787480000000     0.0350526  
H98      H      0.798300000000     0.954900000000     0.718420000000     0.0354205  
H99      H      0.873910000000     0.955730000000     0.717360000000     0.0347955  
H100     H      0.874630000000     0.050000000000     0.787490000000     0.0341971  
H101     H      0.670200000000     0.936160000000     0.850190000000     0.0384115  
H102     H      0.670370000000     0.069370000000     0.850110000000     0.0383545  
H103     H      0.670740000000     0.069450000000     0.906170000000     0.0384079  
H104     H      0.670560000000     0.936240000000     0.906240000000     0.0382637  
H105     H      0.669430000000     0.936160000000     0.600210000000     0.0384264  
H106     H      0.669610000000     0.069370000000     0.600090000000     0.0385215  
H107     H      0.669960000000     0.069490000000     0.656140000000     0.0385858  
H108     H      0.669760000000     0.936280000000     0.656260000000     0.0383252  
H109     H      0.798830000000     0.051080000000     0.537900000000     0.0354769  
H110     H      0.798590000000     0.953740000000     0.970140000000     0.0355201  
H111     H      0.874120000000     0.954450000000     0.969420000000     0.0349716  
H112     H      0.874510000000     0.050430000000     0.538240000000     0.0356133  
H113     H      0.069850000000     0.540580000000     0.752430000000     0.0383633  
H114     H      0.936670000000     0.540400000000     0.752700000000     0.0383058  
H115     H      0.936740000000     0.465530000000     0.750250000000     0.038345   
H116     H      0.069920000000     0.465620000000     0.749980000000     0.0383503  
H117     H      0.953450000000     0.798380000000     0.721660000000     0.0355909  
H118     H      0.050850000000     0.799380000000     0.789350000000     0.0353164  
H119     H      0.050180000000     0.875090000000     0.789220000000     0.0354118  
H120     H      0.954140000000     0.873910000000     0.720470000000     0.0351129  
H121     H      0.936420000000     0.465480000000     0.000590000000     0.0382498  
H122     H      0.069590000000     0.465670000000     0.499690000000     0.0383979  
H123     H      0.069510000000     0.540590000000     0.502140000000     0.0384111  
H124     H      0.936340000000     0.540390000000     0.003040000000     0.0384238  
H125     H      0.936170000000     0.670340000000     0.907890000000     0.03826    
H126     H      0.069350000000     0.670780000000     0.907850000000     0.0384751  
H127     H      0.069300000000     0.670070000000     0.851800000000     0.0384291  
H128     H      0.936120000000     0.669640000000     0.851840000000     0.038417   
H129     H      0.069250000000     0.670090000000     0.601740000000     0.0384328  
H130     H      0.936070000000     0.669710000000     0.601900000000     0.0384214  
H131     H      0.936220000000     0.670410000000     0.657950000000     0.0382934  
H132     H      0.069400000000     0.670800000000     0.657790000000     0.0384685  
H133     H      0.050700000000     0.799360000000     0.539440000000     0.0353024  
H134     H      0.953630000000     0.798380000000     0.971480000000     0.0355407  
H135     H      0.954350000000     0.873910000000     0.970300000000     0.0349505  
H136     H      0.050050000000     0.875070000000     0.539310000000     0.0352948  
H137     H      0.465300000000     0.936470000000     0.751250000000     0.0382607  
H138     H      0.465490000000     0.069680000000     0.750100000000     0.0383882  
H139     H      0.540430000000     0.069600000000     0.751530000000     0.0383823  
H140     H      0.540240000000     0.936390000000     0.752680000000     0.0382798  
H141     H      0.206710000000     0.954550000000     0.716030000000     0.0353917  
H142     H      0.207380000000     0.052120000000     0.783600000000     0.0354002  
H143     H      0.131810000000     0.051330000000     0.784650000000     0.0356402  
H144     H      0.131110000000     0.955100000000     0.716010000000     0.0357204  
H145     H      0.465490000000     0.069680000000     0.000270000000     0.0384757  
H146     H      0.465310000000     0.936470000000     0.001430000000     0.0383208  
H147     H      0.540260000000     0.936390000000     0.002510000000     0.0383526  
H148     H      0.540440000000     0.069600000000     0.001350000000     0.0384564  
H149     H      0.336150000000     0.936700000000     0.902680000000     0.0382826  
H150     H      0.336330000000     0.069920000000     0.902570000000     0.03854    
H151     H      0.335970000000     0.069800000000     0.846520000000     0.0384465  
H152     H      0.335780000000     0.936580000000     0.846640000000     0.0383302  
H153     H      0.335180000000     0.069820000000     0.596540000000     0.0383242  
H154     H      0.334990000000     0.936610000000     0.596610000000     0.0383648  
H155     H      0.335360000000     0.936690000000     0.652660000000     0.0382498  
H156     H      0.335540000000     0.069900000000     0.652590000000     0.0383891  
H157     H      0.206930000000     0.954970000000     0.964870000000     0.0354744  
H158     H      0.207150000000     0.052340000000     0.032600000000     0.0352401  
H159     H      0.131620000000     0.051630000000     0.533310000000     0.0341008  
H160     H      0.131250000000     0.955620000000     0.464520000000     0.0352951  
O1       O      0.277320000000     0.037890000000     0.999840000000    -0.541952   
O2       O      0.394260000000     0.037610000000     0.499720000000    -0.542782   
O3       O      0.335780000000     0.037780000000     0.455910000000    -0.542173   
O4       O      0.335780000000     0.037660000000     0.043370000000    -0.54295    
O5       O      0.334620000000     0.968780000000     0.043250000000    -0.540101   
O6       O      0.336650000000     0.968900000000     0.455810000000    -0.541789   
O7       O      0.394120000000     0.968730000000     0.000290000000    -0.540631   
O8       O      0.277150000000     0.968920000000     0.498470000000    -0.53964    
O9       O      0.277280000000     0.037780000000     0.250250000000    -0.541724   
O10      O      0.394230000000     0.037600000000     0.249440000000    -0.542728   
O11      O      0.335300000000     0.037730000000     0.205950000000    -0.542227   
O12      O      0.336200000000     0.037610000000     0.293390000000    -0.543381   
O13      O      0.335100000000     0.968730000000     0.293280000000    -0.540353   
O14      O      0.336240000000     0.968850000000     0.205830000000    -0.541767   
O15      O      0.394140000000     0.968720000000     0.250020000000    -0.541173   
O16      O      0.277200000000     0.968810000000     0.248890000000    -0.54023    
O17      O      0.036960000000     0.728780000000     0.005990000000    -0.541293   
O18      O      0.037250000000     0.611780000000     0.504040000000    -0.542208   
O19      O      0.037160000000     0.671340000000     0.461190000000    -0.541862   
O20      O      0.037050000000     0.669240000000     0.048620000000    -0.543205   
O21      O      0.968180000000     0.670050000000     0.048520000000    -0.540332   
O22      O      0.968300000000     0.670110000000     0.461060000000    -0.541698   
O23      O      0.968380000000     0.611590000000     0.004620000000    -0.54132    
O24      O      0.968020000000     0.728550000000     0.504620000000    -0.54049    
O25      O      0.037010000000     0.728830000000     0.256000000000    -0.541075   
O26      O      0.037490000000     0.611830000000     0.254040000000    -0.542136   
O27      O      0.037280000000     0.671400000000     0.211180000000    -0.54155    
O28      O      0.037170000000     0.669270000000     0.298630000000    -0.54279    
O29      O      0.968300000000     0.669970000000     0.298510000000    -0.54069    
O30      O      0.968420000000     0.670100000000     0.211070000000    -0.541989   
O31      O      0.968630000000     0.611550000000     0.254600000000    -0.541625   
O32      O      0.968060000000     0.728510000000     0.254640000000    -0.540376   
O33      O      0.728430000000     0.968180000000     0.002930000000    -0.540342   
O34      O      0.611500000000     0.968460000000     0.503070000000    -0.54135    
O35      O      0.669960000000     0.968410000000     0.459400000000    -0.54162    
O36      O      0.669980000000     0.968290000000     0.046860000000    -0.540534   
O37      O      0.669110000000     0.037180000000     0.046970000000    -0.543122   
O38      O      0.671130000000     0.037290000000     0.459530000000    -0.541686   
O39      O      0.611640000000     0.037340000000     0.002490000000    -0.542341   
O40      O      0.728600000000     0.037150000000     0.504300000000    -0.541186   
O41      O      0.728450000000     0.968290000000     0.252510000000    -0.540033   
O42      O      0.611500000000     0.968470000000     0.253340000000    -0.54118    
O43      O      0.669520000000     0.968460000000     0.209380000000    -0.541749   
O44      O      0.670440000000     0.968330000000     0.296830000000    -0.54036    
O45      O      0.669490000000     0.037210000000     0.296950000000    -0.543217   
O46      O      0.670640000000     0.037350000000     0.209500000000    -0.541782   
O47      O      0.611580000000     0.037350000000     0.252760000000    -0.542609   
O48      O      0.728530000000     0.037260000000     0.253900000000    -0.541636   
O49      O      0.060300000000     0.001240000000     0.474360000000    -0.541189   
O50      O      0.943400000000     0.001270000000     0.476880000000    -0.542257   
O51      O      0.001470000000     0.060100000000     0.473900000000    -0.541364   
O52      O      0.001440000000     0.943200000000     0.477330000000    -0.542181   
O53      O      0.004290000000     0.945960000000     0.028840000000    -0.53919    
O54      O      0.004310000000     0.062850000000     0.025400000000    -0.543753   
O55      O      0.945450000000     0.004810000000     0.028380000000    -0.539026   
O56      O      0.062350000000     0.004790000000     0.025860000000    -0.543816   
O57      O      0.060920000000     0.000220000000     0.225190000000    -0.542583   
O58      O      0.943990000000     0.002280000000     0.226070000000    -0.540514   
O59      O      0.003730000000     0.060080000000     0.223880000000    -0.540839   
O60      O      0.001120000000     0.943220000000     0.227370000000    -0.54213    
O61      O      0.004530000000     0.945990000000     0.278850000000    -0.538838   
O62      O      0.001800000000     0.062860000000     0.275410000000    -0.543982   
O63      O      0.944730000000     0.003750000000     0.277650000000    -0.540455   
O64      O      0.061650000000     0.005900000000     0.276600000000    -0.54232    
O65      O      0.968900000000     0.277300000000     0.996550000000    -0.539758   
O66      O      0.968670000000     0.394300000000     0.498540000000    -0.540715   
O67      O      0.969310000000     0.336880000000     0.453950000000    -0.542085   
O68      O      0.968260000000     0.334710000000     0.041380000000    -0.539783   
O69      O      0.037120000000     0.335950000000     0.041820000000    -0.54329    
O70      O      0.038170000000     0.335990000000     0.454360000000    -0.54166    
O71      O      0.037530000000     0.394450000000     0.998260000000    -0.542975   
O72      O      0.037830000000     0.277500000000     0.498280000000    -0.542215   
O73      O      0.968360000000     0.277540000000     0.248290000000    -0.540695   
O74      O      0.968810000000     0.394470000000     0.248250000000    -0.541671   
O75      O      0.968100000000     0.336010000000     0.204360000000    -0.540075   
O76      O      0.969160000000     0.335990000000     0.291820000000    -0.542145   
O77      O      0.038010000000     0.334690000000     0.291380000000    -0.541476   
O78      O      0.036970000000     0.336820000000     0.203950000000    -0.543333   
O79      O      0.037680000000     0.394270000000     0.248510000000    -0.541988   
O80      O      0.037290000000     0.277250000000     0.246560000000    -0.540958   
O81      O      0.277320000000     0.037890000000     0.499840000000    -0.541927   
O82      O      0.394260000000     0.037610000000     0.999720000000    -0.542933   
O83      O      0.335780000000     0.037780000000     0.955910000000    -0.542172   
O84      O      0.335780000000     0.037660000000     0.543370000000    -0.543059   
O85      O      0.334620000000     0.968780000000     0.543250000000    -0.540231   
O86      O      0.336650000000     0.968900000000     0.955810000000    -0.541772   
O87      O      0.394120000000     0.968730000000     0.500290000000    -0.54074    
O88      O      0.277150000000     0.968920000000     0.998470000000    -0.539627   
O89      O      0.277280000000     0.037780000000     0.750250000000    -0.541727   
O90      O      0.394230000000     0.037600000000     0.749440000000    -0.542731   
O91      O      0.335300000000     0.037730000000     0.705950000000    -0.54223    
O92      O      0.336200000000     0.037610000000     0.793390000000    -0.543382   
O93      O      0.335100000000     0.968730000000     0.793280000000    -0.540357   
O94      O      0.336240000000     0.968850000000     0.705830000000    -0.541769   
O95      O      0.394140000000     0.968720000000     0.750020000000    -0.541177   
O96      O      0.277200000000     0.968810000000     0.748890000000    -0.540232   
O97      O      0.036960000000     0.728780000000     0.505990000000    -0.541326   
O98      O      0.037250000000     0.611780000000     0.004050000000    -0.542179   
O99      O      0.037160000000     0.671340000000     0.961190000000    -0.542023   
O100     O      0.037050000000     0.669240000000     0.548620000000    -0.54318    
O101     O      0.968180000000     0.670050000000     0.548520000000    -0.540295   
O102     O      0.968300000000     0.670110000000     0.961060000000    -0.541845   
O103     O      0.968380000000     0.611590000000     0.504620000000    -0.541345   
O104     O      0.968020000000     0.728550000000     0.004620000000    -0.540447   
O105     O      0.037010000000     0.728830000000     0.756000000000    -0.541077   
O106     O      0.037490000000     0.611830000000     0.754040000000    -0.542138   
O107     O      0.037280000000     0.671400000000     0.711180000000    -0.541553   
O108     O      0.037170000000     0.669270000000     0.798630000000    -0.542792   
O109     O      0.968300000000     0.669970000000     0.798510000000    -0.540692   
O110     O      0.968420000000     0.670100000000     0.711070000000    -0.54199    
O111     O      0.968630000000     0.611550000000     0.754600000000    -0.541627   
O112     O      0.968060000000     0.728510000000     0.754640000000    -0.540377   
O113     O      0.728430000000     0.968180000000     0.502930000000    -0.540386   
O114     O      0.611500000000     0.968460000000     0.003070000000    -0.541339   
O115     O      0.669960000000     0.968410000000     0.959400000000    -0.541769   
O116     O      0.669980000000     0.968290000000     0.546860000000    -0.540493   
O117     O      0.669110000000     0.037180000000     0.546970000000    -0.543082   
O118     O      0.671130000000     0.037290000000     0.959530000000    -0.54183    
O119     O      0.611640000000     0.037340000000     0.502490000000    -0.542358   
O120     O      0.728600000000     0.037150000000     0.004300000000    -0.541153   
O121     O      0.728450000000     0.968290000000     0.752510000000    -0.540035   
O122     O      0.611500000000     0.968470000000     0.753340000000    -0.541183   
O123     O      0.669520000000     0.968460000000     0.709380000000    -0.541752   
O124     O      0.670440000000     0.968330000000     0.796830000000    -0.540364   
O125     O      0.669490000000     0.037210000000     0.796950000000    -0.543219   
O126     O      0.670640000000     0.037350000000     0.709500000000    -0.541785   
O127     O      0.611580000000     0.037350000000     0.752760000000    -0.542612   
O128     O      0.728530000000     0.037260000000     0.753900000000    -0.541638   
O129     O      0.060300000000     0.001240000000     0.974360000000    -0.541166   
O130     O      0.943400000000     0.001270000000     0.976880000000    -0.542379   
O131     O      0.001470000000     0.060100000000     0.973900000000    -0.541342   
O132     O      0.001440000000     0.943200000000     0.977330000000    -0.542313   
O133     O      0.004290000000     0.945960000000     0.528840000000    -0.539142   
O134     O      0.004310000000     0.062850000000     0.525400000000    -0.543862   
O135     O      0.945450000000     0.004810000000     0.528380000000    -0.538981   
O136     O      0.062350000000     0.004790000000     0.525860000000    -0.543923   
O137     O      0.060920000000     0.000220000000     0.725190000000    -0.542584   
O138     O      0.943990000000     0.002280000000     0.726070000000    -0.540514   
O139     O      0.003730000000     0.060080000000     0.723880000000    -0.54084    
O140     O      0.001120000000     0.943220000000     0.727370000000    -0.542132   
O141     O      0.004530000000     0.945990000000     0.778850000000    -0.538841   
O142     O      0.001800000000     0.062860000000     0.775410000000    -0.543983   
O143     O      0.944730000000     0.003750000000     0.777650000000    -0.540456   
O144     O      0.061650000000     0.005900000000     0.776600000000    -0.542321   
O145     O      0.968900000000     0.277300000000     0.496550000000    -0.539743   
O146     O      0.968670000000     0.394300000000     0.998540000000    -0.540782   
O147     O      0.969310000000     0.336880000000     0.953950000000    -0.542076   
O148     O      0.968260000000     0.334710000000     0.541380000000    -0.539901   
O149     O      0.037120000000     0.335950000000     0.541820000000    -0.543413   
O150     O      0.038170000000     0.335990000000     0.954360000000    -0.541648   
O151     O      0.037530000000     0.394450000000     0.498260000000    -0.542927   
O152     O      0.037830000000     0.277500000000     0.998280000000    -0.542238   
O153     O      0.968360000000     0.277540000000     0.748290000000    -0.540697   
O154     O      0.968810000000     0.394470000000     0.748250000000    -0.541673   
O155     O      0.968100000000     0.336010000000     0.704360000000    -0.540076   
O156     O      0.969160000000     0.335990000000     0.791820000000    -0.542146   
O157     O      0.038010000000     0.334690000000     0.791380000000    -0.541477   
O158     O      0.036970000000     0.336820000000     0.703950000000    -0.543336   
O159     O      0.037680000000     0.394270000000     0.748510000000    -0.541991   
O160     O      0.037290000000     0.277250000000     0.746560000000    -0.54096    
V1       V      0.335790000000     0.040500000000     0.499680000000     1.38143    
V2       V      0.335630000000     0.966070000000     0.499480000000     1.38594    
V3       V      0.335760000000     0.040450000000     0.249720000000     1.38153    
V4       V      0.335670000000     0.966010000000     0.249510000000     1.38713    
V5       V      0.039870000000     0.670290000000     0.504950000000     1.38024    
V6       V      0.965460000000     0.670060000000     0.504740000000     1.38755    
V7       V      0.040000000000     0.670340000000     0.254950000000     1.37937    
V8       V      0.965590000000     0.670010000000     0.254740000000     1.38838    
V9       V      0.669960000000     0.965570000000     0.503090000000     1.38753    
V10      V      0.670120000000     0.040000000000     0.503300000000     1.38022    
V11      V      0.669970000000     0.965620000000     0.253050000000     1.38712    
V12      V      0.670060000000     0.040060000000     0.253270000000     1.38108    
V13      V      0.001640000000     0.001410000000     0.473540000000     1.3794     
V14      V      0.004110000000     0.004640000000     0.029200000000     1.38008    
V15      V      0.002420000000     0.001410000000     0.223540000000     1.37922    
V16      V      0.003230000000     0.004670000000     0.279210000000     1.3793     
V17      V      0.966020000000     0.335790000000     0.497590000000     1.38604    
V18      V      0.040430000000     0.335980000000     0.498160000000     1.38186    
V19      V      0.965850000000     0.336020000000     0.248160000000     1.38844    
V20      V      0.040260000000     0.335750000000     0.247590000000     1.37943    
V21      V      0.335790000000     0.040500000000     0.999680000000     1.38141    
V22      V      0.335630000000     0.966070000000     0.999480000000     1.38568    
V23      V      0.335760000000     0.040450000000     0.749720000000     1.38153    
V24      V      0.335670000000     0.966010000000     0.749510000000     1.38712    
V25      V      0.039870000000     0.670290000000     0.004950000000     1.38052    
V26      V      0.965460000000     0.670060000000     0.004740000000     1.38779    
V27      V      0.040000000000     0.670340000000     0.754950000000     1.37936    
V28      V      0.965590000000     0.670010000000     0.754740000000     1.38838    
V29      V      0.669960000000     0.965570000000     0.003090000000     1.38779    
V30      V      0.670120000000     0.040000000000     0.003300000000     1.38049    
V31      V      0.669970000000     0.965620000000     0.753050000000     1.38711    
V32      V      0.670060000000     0.040060000000     0.753270000000     1.38107    
V33      V      0.001640000000     0.001410000000     0.973540000000     1.37929    
V34      V      0.004110000000     0.004640000000     0.529200000000     1.37987    
V35      V      0.002420000000     0.001410000000     0.723540000000     1.37921    
V36      V      0.003230000000     0.004670000000     0.779210000000     1.37931    
V37      V      0.966020000000     0.335790000000     0.997590000000     1.38595    
V38      V      0.040430000000     0.335980000000     0.998160000000     1.3818     
V39      V      0.965850000000     0.336020000000     0.748160000000     1.38843    
V40      V      0.040260000000     0.335750000000     0.747590000000     1.37942    


