data_structure

_audit_creation_method RASPA-1.0
_audit_creation_date 2023-5-22
_audit_author_name 'Poobodin Mano'

_cell_length_a    43.4079
_cell_length_b    43.4086
_cell_length_c    43.2194
_cell_angle_alpha 90
_cell_angle_beta  90
_cell_angle_gamma 90
_cell_volume      81437.3

_symmetry_cell_setting          triclinic
_symmetry_space_group_name_Hall 'P 1'
_symmetry_space_group_name_H-M  'P 1'
_symmetry_Int_Tables_number     1

_symmetry_equiv_pos_as_xyz 'x,y,z'

loop_
_atom_site_label
_atom_site_type_symbol
_atom_site_fract_x
_atom_site_fract_y
_atom_site_fract_z
_atom_site_charge
C1       C      0.001440000000     0.501430000000     0.312050000000     0.4184     
C2       C      0.001440000000     0.501430000000     0.195220000000     0.418335   
C3       C      0.501310000000     0.443160000000     0.253640000000     0.424825   
C4       C      0.501570000000     0.059710000000     0.253640000000     0.424121   
C5       C      0.501440000000     0.251430000000     0.312050000000     0.42605    
C6       C      0.501440000000     0.251430000000     0.195220000000     0.426049   
C7       C      0.001570000000     0.309710000000     0.253630000000     0.417322   
C8       C      0.001310000000     0.193160000000     0.253630000000     0.417513   
C9       C      0.251440000000     0.001430000000     0.312050000000     0.427271   
C10      C      0.251440000000     0.001430000000     0.195230000000     0.427217   
C11      C      0.251440000000     0.059710000000     0.253640000000     0.424139   
C12      C      0.251440000000     0.443160000000     0.253640000000     0.424827   
C13      C      0.251440000000     0.251430000000     0.312060000000     0.426043   
C14      C      0.251440000000     0.251430000000     0.195240000000     0.426016   
C15      C      0.251440000000     0.193160000000     0.253650000000     0.424867   
C16      C      0.251440000000     0.309710000000     0.253650000000     0.424776   
C17      C      0.001440000000     0.501430000000     0.445220000000     0.427399   
C18      C      0.001440000000     0.501430000000     0.062050000000     0.42655    
C19      C      0.059710000000     0.002020000000     0.003630000000     0.415385   
C20      C      0.443170000000     0.000850000000     0.003630000000     0.416492   
C21      C      0.501440000000     0.251430000000     0.445220000000     0.426148   
C22      C      0.501440000000     0.251430000000     0.062050000000     0.425408   
C23      C      0.443170000000     0.250850000000     0.003640000000     0.423818   
C24      C      0.059710000000     0.252020000000     0.003640000000     0.423189   
C25      C      0.251440000000     0.501430000000     0.445230000000     0.426285   
C26      C      0.251440000000     0.501430000000     0.062040000000     0.42515    
C27      C      0.309710000000     0.000980000000     0.003630000000     0.415954   
C28      C      0.193170000000     0.001890000000     0.003630000000     0.41586    
C29      C      0.251440000000     0.251430000000     0.445240000000     0.42592    
C30      C      0.251440000000     0.251430000000     0.062060000000     0.425348   
C31      C      0.309710000000     0.250980000000     0.003650000000     0.423328   
C32      C      0.193170000000     0.251890000000     0.003650000000     0.423229   
C33      C      0.360380000000     0.278650000000     0.504040000000    -0.000644269
C34      C      0.343850000000     0.250810000000     0.003650000000    -0.106788   
C35      C      0.360300000000     0.222890000000     0.003270000000    -0.00103573 
C36      C      0.392520000000     0.222830000000     0.003280000000    -0.0010921  
C37      C      0.409020000000     0.250700000000     0.003650000000    -0.106879   
C38      C      0.392550000000     0.278590000000     0.504020000000    -0.000513913
C39      C      0.110330000000     0.224270000000     0.504020000000    -0.000693158
C40      C      0.093860000000     0.252170000000     0.003650000000    -0.106773   
C41      C      0.110360000000     0.280030000000     0.003280000000    -0.00112947 
C42      C      0.142580000000     0.279980000000     0.003270000000    -0.00108537 
C43      C      0.159030000000     0.252060000000     0.003650000000    -0.106815   
C44      C      0.142500000000     0.224220000000     0.504040000000    -0.00064163 
C45      C      0.392520000000     0.472830000000     0.504000000000    -0.000488711
C46      C      0.409020000000     0.000700000000     0.003630000000    -0.112853   
C47      C      0.392550000000     0.028600000000     0.003250000000    -0.000992607
C48      C      0.360380000000     0.028650000000     0.003240000000    -0.000956658
C49      C      0.343850000000     0.000810000000     0.003630000000    -0.112885   
C50      C      0.360300000000     0.472890000000     0.504010000000    -0.000450433
C51      C      0.110330000000     0.474270000000     0.003250000000    -0.00139984 
C52      C      0.093860000000     0.002170000000     0.003630000000    -0.112738   
C53      C      0.110360000000     0.030040000000     0.504000000000    -0.000558629
C54      C      0.142580000000     0.029980000000     0.504010000000    -0.000248137
C55      C      0.159030000000     0.002060000000     0.003630000000    -0.112982   
C56      C      0.142500000000     0.474220000000     0.003240000000    -0.00117482 
C57      C      0.271310000000     0.231810000000     0.144820000000     0.00141281 
C58      C      0.251440000000     0.251430000000     0.161200000000    -0.106435   
C59      C      0.231570000000     0.271050000000     0.144820000000     0.00145553 
C60      C      0.231970000000     0.271450000000     0.112480000000     0.00130916 
C61      C      0.251440000000     0.251430000000     0.096100000000    -0.106224   
C62      C      0.270910000000     0.231420000000     0.112480000000     0.00135369 
C63      C      0.271440000000     0.270920000000     0.362480000000     0.00146585 
C64      C      0.251440000000     0.251430000000     0.346100000000    -0.106471   
C65      C      0.231440000000     0.231950000000     0.362480000000     0.0014649  
C66      C      0.231830000000     0.231560000000     0.394820000000     0.00140385 
C67      C      0.251440000000     0.251430000000     0.411200000000    -0.106405   
C68      C      0.271050000000     0.271310000000     0.394820000000     0.00140048 
C69      C      0.271050000000     0.021310000000     0.112460000000     0.000623266
C70      C      0.251440000000     0.501430000000     0.096080000000    -0.106147   
C71      C      0.231830000000     0.481560000000     0.112460000000     0.00127391 
C72      C      0.231440000000     0.481950000000     0.144810000000     0.00151951 
C73      C      0.251440000000     0.501430000000     0.161190000000    -0.106508   
C74      C      0.271440000000     0.020920000000     0.144810000000     0.00307752 
C75      C      0.270910000000     0.481420000000     0.394810000000     0.00146545 
C76      C      0.251440000000     0.501430000000     0.411190000000    -0.106529   
C77      C      0.231970000000     0.021450000000     0.394810000000     0.000727229
C78      C      0.231570000000     0.021050000000     0.362460000000     0.00303112 
C79      C      0.251440000000     0.001430000000     0.346080000000    -0.115538   
C80      C      0.271310000000     0.481810000000     0.362460000000     0.00140128 
C81      C      0.279320000000     0.392530000000     0.252890000000    -0.0005183  
C82      C      0.251440000000     0.409020000000     0.253640000000    -0.106281   
C83      C      0.223570000000     0.392530000000     0.254390000000    -0.000480754
C84      C      0.223570000000     0.360340000000     0.254400000000    -0.000505651
C85      C      0.251440000000     0.343850000000     0.253650000000    -0.106247   
C86      C      0.279320000000     0.360340000000     0.252890000000    -0.000527957
C87      C      0.223570000000     0.110340000000     0.252890000000    -0.000621003
C88      C      0.251440000000     0.093850000000     0.253640000000    -0.106148   
C89      C      0.279320000000     0.110340000000     0.254390000000    -0.000632622
C90      C      0.279320000000     0.142530000000     0.254400000000    -0.000525438
C91      C      0.251440000000     0.159020000000     0.253650000000    -0.106319   
C92      C      0.223570000000     0.142530000000     0.252890000000    -0.000494617
C93      C      0.021460000000     0.231970000000     0.144800000000     0.000802354
C94      C      0.501440000000     0.251430000000     0.161180000000    -0.106423   
C95      C      0.481420000000     0.270900000000     0.144800000000     0.00143103 
C96      C      0.481820000000     0.271300000000     0.112460000000     0.00140744 
C97      C      0.501440000000     0.251430000000     0.096080000000    -0.106334   
C98      C      0.021060000000     0.231560000000     0.112460000000     0.00295558 
C99      C      0.021060000000     0.231560000000     0.394800000000     0.00304537 
C100     C      0.501440000000     0.251430000000     0.411180000000    -0.106412   
C101     C      0.481820000000     0.271300000000     0.394800000000     0.00147462 
C102     C      0.481430000000     0.270910000000     0.362460000000     0.00148223 
C103     C      0.501440000000     0.251430000000     0.346080000000    -0.106467   
C104     C      0.021460000000     0.231960000000     0.362460000000     0.000795947
C105     C      0.021470000000     0.481970000000     0.144810000000     0.000760604
C106     C      0.001440000000     0.501430000000     0.161180000000    -0.111902   
C107     C      0.481410000000     0.020890000000     0.144810000000     0.00303858 
C108     C      0.481810000000     0.021290000000     0.112460000000     0.000756387
C109     C      0.001440000000     0.501430000000     0.096080000000    -0.115251   
C110     C      0.021070000000     0.481580000000     0.112460000000     0.00302873 
C111     C      0.021440000000     0.481950000000     0.362460000000     0.000761105
C112     C      0.001440000000     0.501430000000     0.346090000000    -0.111966   
C113     C      0.481440000000     0.020920000000     0.362460000000     0.00296875 
C114     C      0.481830000000     0.021320000000     0.394810000000     0.000773572
C115     C      0.001440000000     0.501430000000     0.411190000000    -0.115532   
C116     C      0.021050000000     0.481550000000     0.394810000000     0.00302073 
C117     C      0.029270000000     0.392590000000     0.253630000000    -0.000244975
C118     C      0.501330000000     0.409020000000     0.253630000000    -0.106258   
C119     C      0.473500000000     0.392480000000     0.253640000000    -0.000558584
C120     C      0.473610000000     0.360280000000     0.253640000000    -0.000466486
C121     C      0.001550000000     0.343850000000     0.253630000000    -0.11243    
C122     C      0.029380000000     0.360390000000     0.253630000000    -0.000334273
C123     C      0.029380000000     0.110390000000     0.253640000000    -0.000459812
C124     C      0.501550000000     0.093850000000     0.253630000000    -0.106136   
C125     C      0.473610000000     0.110280000000     0.253630000000    -0.000622064
C126     C      0.473510000000     0.142480000000     0.253630000000    -0.000461283
C127     C      0.001340000000     0.159020000000     0.253630000000    -0.112339   
C128     C      0.029270000000     0.142590000000     0.253640000000    -0.000264707
C129     C      0.001440000000     0.501430000000     0.812050000000     0.418706   
C130     C      0.001440000000     0.501430000000     0.695220000000     0.418301   
C131     C      0.501310000000     0.443160000000     0.753640000000     0.424839   
C132     C      0.501570000000     0.059710000000     0.753640000000     0.424136   
C133     C      0.501440000000     0.251430000000     0.812050000000     0.426226   
C134     C      0.501440000000     0.251430000000     0.695220000000     0.426002   
C135     C      0.001570000000     0.309710000000     0.753630000000     0.417357   
C136     C      0.001310000000     0.193160000000     0.753630000000     0.417547   
C137     C      0.251440000000     0.001430000000     0.812050000000     0.427443   
C138     C      0.251440000000     0.001430000000     0.695230000000     0.427171   
C139     C      0.251440000000     0.059710000000     0.753640000000     0.424153   
C140     C      0.251440000000     0.443160000000     0.753640000000     0.424841   
C141     C      0.251440000000     0.251430000000     0.812060000000     0.426218   
C142     C      0.251440000000     0.251430000000     0.695240000000     0.425969   
C143     C      0.251440000000     0.193160000000     0.753650000000     0.42488    
C144     C      0.251440000000     0.309710000000     0.753650000000     0.42479    
C145     C      0.001440000000     0.501430000000     0.945220000000     0.425819   
C146     C      0.001440000000     0.501430000000     0.562050000000     0.4273     
C147     C      0.059710000000     0.002020000000     0.503630000000     0.416606   
C148     C      0.443170000000     0.000850000000     0.503630000000     0.417714   
C149     C      0.501440000000     0.251430000000     0.945220000000     0.424563   
C150     C      0.501440000000     0.251430000000     0.562050000000     0.426073   
C151     C      0.443170000000     0.250850000000     0.503640000000     0.425088   
C152     C      0.059710000000     0.252020000000     0.503640000000     0.424459   
C153     C      0.251440000000     0.501430000000     0.945230000000     0.424733   
C154     C      0.251440000000     0.501430000000     0.562040000000     0.425902   
C155     C      0.309710000000     0.000980000000     0.503630000000     0.417191   
C156     C      0.193170000000     0.001890000000     0.503630000000     0.417096   
C157     C      0.251440000000     0.251430000000     0.945240000000     0.424363   
C158     C      0.251440000000     0.251430000000     0.562060000000     0.426092   
C159     C      0.309710000000     0.250980000000     0.503660000000     0.424572   
C160     C      0.193170000000     0.251890000000     0.503660000000     0.424473   
C161     C      0.360380000000     0.278650000000     0.004040000000    -0.00124043 
C162     C      0.343850000000     0.250810000000     0.503650000000    -0.106185   
C163     C      0.360300000000     0.222890000000     0.503270000000    -0.000445311
C164     C      0.392520000000     0.222830000000     0.503280000000    -0.000494722
C165     C      0.409020000000     0.250700000000     0.503650000000    -0.106288   
C166     C      0.392550000000     0.278590000000     0.004020000000    -0.00111809 
C167     C      0.110330000000     0.224270000000     0.004020000000    -0.00129699 
C168     C      0.093860000000     0.252170000000     0.503650000000    -0.106183   
C169     C      0.110360000000     0.280030000000     0.503280000000    -0.000532084
C170     C      0.142580000000     0.279980000000     0.503270000000    -0.000494939
C171     C      0.159030000000     0.252060000000     0.503650000000    -0.106213   
C172     C      0.142500000000     0.224220000000     0.004040000000    -0.00123701 
C173     C      0.392520000000     0.472830000000     0.004000000000    -0.00107802 
C174     C      0.409020000000     0.000700000000     0.503630000000    -0.112269   
C175     C      0.392550000000     0.028600000000     0.503250000000    -0.000392581
C176     C      0.360380000000     0.028650000000     0.503240000000    -0.000361499
C177     C      0.343850000000     0.000810000000     0.503630000000    -0.112308   
C178     C      0.360300000000     0.472890000000     0.004010000000    -0.00105362 
C179     C      0.110330000000     0.474270000000     0.503250000000    -0.00079899 
C180     C      0.093860000000     0.002170000000     0.503630000000    -0.112154   
C181     C      0.110360000000     0.030040000000     0.004000000000    -0.00114624 
C182     C      0.142580000000     0.029980000000     0.004010000000    -0.000850164
C183     C      0.159030000000     0.002060000000     0.503630000000    -0.112404   
C184     C      0.142500000000     0.474220000000     0.503240000000    -0.000578978
C185     C      0.271310000000     0.231810000000     0.644820000000     0.00131388 
C186     C      0.251440000000     0.251430000000     0.661200000000    -0.106422   
C187     C      0.231570000000     0.271050000000     0.644820000000     0.00135664 
C188     C      0.231970000000     0.271450000000     0.612480000000     0.00141655 
C189     C      0.251440000000     0.251430000000     0.596100000000    -0.106528   
C190     C      0.270910000000     0.231420000000     0.612480000000     0.00146114 
C191     C      0.271440000000     0.270920000000     0.862480000000     0.00232722 
C192     C      0.251440000000     0.251430000000     0.846100000000    -0.10652    
C193     C      0.231440000000     0.231950000000     0.862480000000     0.00232646 
C194     C      0.231830000000     0.231560000000     0.894820000000     0.00115322 
C195     C      0.251440000000     0.251430000000     0.911200000000    -0.104103   
C196     C      0.271050000000     0.271310000000     0.894820000000     0.00115047 
C197     C      0.271050000000     0.021310000000     0.612470000000     0.000724024
C198     C      0.251440000000     0.501430000000     0.596080000000    -0.106444   
C199     C      0.231830000000     0.481560000000     0.612470000000     0.0013808  
C200     C      0.231440000000     0.481950000000     0.644810000000     0.00142152 
C201     C      0.251440000000     0.501430000000     0.661190000000    -0.106496   
C202     C      0.271440000000     0.020920000000     0.644810000000     0.00298299 
C203     C      0.270910000000     0.481420000000     0.894810000000     0.00121476 
C204     C      0.251440000000     0.501430000000     0.911190000000    -0.10422    
C205     C      0.231970000000     0.021450000000     0.894810000000     0.000478221
C206     C      0.231570000000     0.021050000000     0.862460000000     0.00389019 
C207     C      0.251440000000     0.001430000000     0.846080000000    -0.115574   
C208     C      0.271310000000     0.481810000000     0.862460000000     0.00226425 
C209     C      0.279320000000     0.392530000000     0.752890000000    -0.000456368
C210     C      0.251440000000     0.409020000000     0.753640000000    -0.1062     
C211     C      0.223570000000     0.392530000000     0.754400000000    -0.000408453
C212     C      0.223570000000     0.360340000000     0.754400000000    -0.000432008
C213     C      0.251440000000     0.343850000000     0.753640000000    -0.106168   
C214     C      0.279320000000     0.360340000000     0.752890000000    -0.000463484
C215     C      0.223570000000     0.110340000000     0.752890000000    -0.000558615
C216     C      0.251440000000     0.093850000000     0.753640000000    -0.106069   
C217     C      0.279320000000     0.110340000000     0.754390000000    -0.000558733
C218     C      0.279320000000     0.142530000000     0.754400000000    -0.000452828
C219     C      0.251440000000     0.159020000000     0.753640000000    -0.106239   
C220     C      0.223570000000     0.142530000000     0.752890000000    -0.000430547
C221     C      0.021460000000     0.231970000000     0.644800000000     0.000706463
C222     C      0.501440000000     0.251430000000     0.661180000000    -0.106413   
C223     C      0.481420000000     0.270900000000     0.644800000000     0.00133468 
C224     C      0.481820000000     0.271300000000     0.612460000000     0.0015077  
C225     C      0.501440000000     0.251430000000     0.596080000000    -0.106634   
C226     C      0.021060000000     0.231560000000     0.612460000000     0.00305361 
C227     C      0.021060000000     0.231560000000     0.894810000000     0.00278064 
C228     C      0.501440000000     0.251430000000     0.911180000000    -0.104099   
C229     C      0.481820000000     0.271300000000     0.894810000000     0.001216   
C230     C      0.481430000000     0.270910000000     0.862460000000     0.00234814 
C231     C      0.501440000000     0.251430000000     0.846080000000    -0.10652    
C232     C      0.021460000000     0.231960000000     0.862460000000     0.00166344 
C233     C      0.021470000000     0.481970000000     0.644810000000     0.000656186
C234     C      0.001440000000     0.501430000000     0.661180000000    -0.11188    
C235     C      0.481410000000     0.020890000000     0.644810000000     0.00293369 
C236     C      0.481810000000     0.021290000000     0.612460000000     0.00087879 
C237     C      0.001440000000     0.501430000000     0.596080000000    -0.115555   
C238     C      0.021070000000     0.481580000000     0.612460000000     0.00314937 
C239     C      0.021440000000     0.481950000000     0.862460000000     0.00168208 
C240     C      0.001440000000     0.501430000000     0.846080000000    -0.112125   
C241     C      0.481440000000     0.020920000000     0.862460000000     0.00388255 
C242     C      0.481830000000     0.021320000000     0.894810000000     0.000488462
C243     C      0.001440000000     0.501430000000     0.911190000000    -0.113162   
C244     C      0.021050000000     0.481550000000     0.894810000000     0.00272352 
C245     C      0.029270000000     0.392590000000     0.753630000000    -0.000178207
C246     C      0.501330000000     0.409020000000     0.753630000000    -0.106178   
C247     C      0.473500000000     0.392480000000     0.753640000000    -0.000489457
C248     C      0.473610000000     0.360280000000     0.753640000000    -0.000400553
C249     C      0.001550000000     0.343850000000     0.753630000000    -0.112334   
C250     C      0.029380000000     0.360390000000     0.753630000000    -0.000264181
C251     C      0.029380000000     0.110390000000     0.753640000000    -0.000391338
C252     C      0.501550000000     0.093850000000     0.753630000000    -0.106057   
C253     C      0.473610000000     0.110280000000     0.753630000000    -0.000554441
C254     C      0.473510000000     0.142480000000     0.753630000000    -0.000390609
C255     C      0.001340000000     0.159020000000     0.753630000000    -0.112243   
C256     C      0.029270000000     0.142590000000     0.753640000000    -0.000199687
C257     C      0.001440000000     0.001430000000     0.312050000000     0.419582   
C258     C      0.001440000000     0.001430000000     0.195220000000     0.419533   
C259     C      0.501310000000     0.943160000000     0.253640000000     0.423406   
C260     C      0.501570000000     0.559710000000     0.253640000000     0.424761   
C261     C      0.501440000000     0.751430000000     0.312050000000     0.42605    
C262     C      0.501440000000     0.751430000000     0.195220000000     0.426036   
C263     C      0.001570000000     0.809710000000     0.253630000000     0.41745    
C264     C      0.001310000000     0.693160000000     0.253630000000     0.417446   
C265     C      0.251440000000     0.501430000000     0.312050000000     0.426089   
C266     C      0.251440000000     0.501430000000     0.195230000000     0.426049   
C267     C      0.251440000000     0.559710000000     0.253640000000     0.424825   
C268     C      0.251440000000     0.943160000000     0.253640000000     0.42345    
C269     C      0.251440000000     0.751430000000     0.312060000000     0.426031   
C270     C      0.251440000000     0.751430000000     0.195240000000     0.425997   
C271     C      0.251440000000     0.693160000000     0.253650000000     0.424841   
C272     C      0.251440000000     0.809710000000     0.253650000000     0.424885   
C273     C      0.001440000000     0.001430000000     0.445220000000     0.419808   
C274     C      0.001440000000     0.001430000000     0.062050000000     0.418962   
C275     C      0.059710000000     0.502020000000     0.003630000000     0.422804   
C276     C      0.443170000000     0.500850000000     0.003630000000     0.42379    
C277     C      0.501440000000     0.751430000000     0.445220000000     0.426136   
C278     C      0.501440000000     0.751430000000     0.062050000000     0.425402   
C279     C      0.443170000000     0.750840000000     0.003640000000     0.423782   
C280     C      0.059710000000     0.752020000000     0.003640000000     0.423169   
C281     C      0.251440000000     0.001430000000     0.445230000000     0.418668   
C282     C      0.251440000000     0.001430000000     0.062040000000     0.417567   
C283     C      0.309710000000     0.500980000000     0.003630000000     0.423303   
C284     C      0.193170000000     0.501890000000     0.003630000000     0.423219   
C285     C      0.251440000000     0.751430000000     0.445240000000     0.425899   
C286     C      0.251440000000     0.751430000000     0.062060000000     0.425332   
C287     C      0.309710000000     0.750980000000     0.003650000000     0.423297   
C288     C      0.193170000000     0.751890000000     0.003650000000     0.423207   
C289     C      0.360380000000     0.778650000000     0.504040000000    -0.000593491
C290     C      0.343850000000     0.750810000000     0.003650000000    -0.106754   
C291     C      0.360300000000     0.722880000000     0.003270000000    -0.00112893 
C292     C      0.392520000000     0.722830000000     0.003280000000    -0.00109068 
C293     C      0.409020000000     0.750700000000     0.003650000000    -0.106845   
C294     C      0.392550000000     0.778600000000     0.504020000000    -0.000561378
C295     C      0.110330000000     0.724270000000     0.504020000000    -0.000706232
C296     C      0.093860000000     0.752170000000     0.003650000000    -0.106766   
C297     C      0.110360000000     0.780030000000     0.003280000000    -0.00111246 
C298     C      0.142580000000     0.779980000000     0.003270000000    -0.00106989 
C299     C      0.159030000000     0.752060000000     0.003650000000    -0.106808   
C300     C      0.142500000000     0.724220000000     0.504040000000    -0.000655393
C301     C      0.392520000000     0.972830000000     0.504000000000     0.00625492 
C302     C      0.409020000000     0.500700000000     0.003630000000    -0.106859   
C303     C      0.392550000000     0.528600000000     0.003250000000    -0.00123341 
C304     C      0.360380000000     0.528650000000     0.003240000000    -0.00120856 
C305     C      0.343850000000     0.500810000000     0.003630000000    -0.106815   
C306     C      0.360300000000     0.972890000000     0.504010000000     0.00633447 
C307     C      0.110330000000     0.974270000000     0.003250000000     0.00525458 
C308     C      0.093860000000     0.502170000000     0.003630000000    -0.106585   
C309     C      0.110360000000     0.530040000000     0.504000000000    -0.000728018
C310     C      0.142580000000     0.529980000000     0.504010000000    -0.000420442
C311     C      0.159030000000     0.502060000000     0.003630000000    -0.106877   
C312     C      0.142500000000     0.974220000000     0.003240000000     0.00551001 
C313     C      0.271310000000     0.731810000000     0.144820000000     0.00139472 
C314     C      0.251440000000     0.751430000000     0.161200000000    -0.106371   
C315     C      0.231570000000     0.771060000000     0.144820000000     0.00140855 
C316     C      0.231970000000     0.771450000000     0.112480000000     0.00138236 
C317     C      0.251440000000     0.751430000000     0.096100000000    -0.106224   
C318     C      0.270910000000     0.731420000000     0.112480000000     0.00137097 
C319     C      0.271440000000     0.770920000000     0.362480000000     0.00145929 
C320     C      0.251440000000     0.751430000000     0.346100000000    -0.106438   
C321     C      0.231440000000     0.731950000000     0.362480000000     0.00145713 
C322     C      0.231830000000     0.731560000000     0.394820000000     0.00140701 
C323     C      0.251440000000     0.751430000000     0.411200000000    -0.106395   
C324     C      0.271050000000     0.771310000000     0.394820000000     0.00144319 
C325     C      0.271050000000     0.521310000000     0.112460000000     0.00126741 
C326     C      0.251440000000     0.001430000000     0.096080000000    -0.111662   
C327     C      0.231830000000     0.981560000000     0.112460000000     0.00731952 
C328     C      0.231440000000     0.981950000000     0.144810000000     0.0100885  
C329     C      0.251440000000     0.001430000000     0.161190000000    -0.115435   
C330     C      0.271440000000     0.520920000000     0.144810000000     0.00148569 
C331     C      0.270910000000     0.981420000000     0.394810000000     0.00748594 
C332     C      0.251440000000     0.001430000000     0.411190000000    -0.112029   
C333     C      0.231970000000     0.521450000000     0.394810000000     0.00140939 
C334     C      0.231570000000     0.521050000000     0.362460000000     0.00143462 
C335     C      0.251440000000     0.501430000000     0.346080000000    -0.106557   
C336     C      0.271310000000     0.981820000000     0.362460000000     0.0100714  
C337     C      0.279320000000     0.892530000000     0.252890000000    -0.00082007 
C338     C      0.251440000000     0.909020000000     0.253640000000    -0.104714   
C339     C      0.223570000000     0.892530000000     0.254390000000    -0.000791006
C340     C      0.223570000000     0.860330000000     0.254400000000     4.68874e-06
C341     C      0.251440000000     0.843850000000     0.253650000000    -0.106379   
C342     C      0.279320000000     0.860340000000     0.252890000000    -5.06333e-06
C343     C      0.223570000000     0.610340000000     0.252890000000    -0.000503276
C344     C      0.251440000000     0.593850000000     0.253640000000    -0.106312   
C345     C      0.279320000000     0.610340000000     0.254390000000    -0.00052666 
C346     C      0.279320000000     0.642530000000     0.254400000000    -0.000554425
C347     C      0.251440000000     0.659020000000     0.253650000000    -0.106303   
C348     C      0.223570000000     0.642530000000     0.252890000000    -0.000515801
C349     C      0.021460000000     0.731960000000     0.144800000000     0.000684476
C350     C      0.501440000000     0.751430000000     0.161180000000    -0.106352   
C351     C      0.481420000000     0.770900000000     0.144800000000     0.00142106 
C352     C      0.481820000000     0.771300000000     0.112460000000     0.00146727 
C353     C      0.501440000000     0.751430000000     0.096080000000    -0.106376   
C354     C      0.021060000000     0.731570000000     0.112460000000     0.00306016 
C355     C      0.021060000000     0.731570000000     0.394800000000     0.00310829 
C356     C      0.501440000000     0.751430000000     0.411180000000    -0.106433   
C357     C      0.481820000000     0.771300000000     0.394800000000     0.00151767 
C358     C      0.481430000000     0.770910000000     0.362460000000     0.0014926  
C359     C      0.501440000000     0.751430000000     0.346080000000    -0.106435   
C360     C      0.021460000000     0.731960000000     0.362460000000     0.000754651
C361     C      0.021470000000     0.981970000000     0.144810000000     0.00936373 
C362     C      0.001440000000     0.001430000000     0.161180000000    -0.120823   
C363     C      0.481410000000     0.520890000000     0.144810000000     0.0014242  
C364     C      0.481810000000     0.521290000000     0.112460000000     0.00142502 
C365     C      0.001440000000     0.001430000000     0.096080000000    -0.120688   
C366     C      0.021070000000     0.981570000000     0.112460000000     0.00898299 
C367     C      0.021440000000     0.981950000000     0.362460000000     0.0093371  
C368     C      0.001440000000     0.001430000000     0.346090000000    -0.120868   
C369     C      0.481440000000     0.520920000000     0.362460000000     0.00141183 
C370     C      0.481830000000     0.521320000000     0.394810000000     0.00142658 
C371     C      0.001440000000     0.001430000000     0.411190000000    -0.121022   
C372     C      0.021050000000     0.981550000000     0.394810000000     0.00906997 
C373     C      0.029270000000     0.892590000000     0.253630000000    -0.000584328
C374     C      0.501330000000     0.909020000000     0.253630000000    -0.104674   
C375     C      0.473500000000     0.892480000000     0.253640000000    -0.000844766
C376     C      0.473610000000     0.860280000000     0.253640000000     6.66172e-05
C377     C      0.001550000000     0.843850000000     0.253630000000    -0.112559   
C378     C      0.029380000000     0.860390000000     0.253630000000     0.000175042
C379     C      0.029380000000     0.610390000000     0.253640000000    -0.000355594
C380     C      0.501550000000     0.593850000000     0.253630000000    -0.106271   
C381     C      0.473610000000     0.610280000000     0.253630000000    -0.000542818
C382     C      0.473510000000     0.642480000000     0.253630000000    -0.000489589
C383     C      0.001340000000     0.659020000000     0.253630000000    -0.112333   
C384     C      0.029270000000     0.642590000000     0.253640000000    -0.000272721
C385     C      0.001440000000     0.001430000000     0.812050000000     0.419885   
C386     C      0.001440000000     0.001430000000     0.695220000000     0.4195     
C387     C      0.501310000000     0.943160000000     0.753640000000     0.423421   
C388     C      0.501570000000     0.559710000000     0.753640000000     0.424776   
C389     C      0.501440000000     0.751430000000     0.812050000000     0.426226   
C390     C      0.501440000000     0.751430000000     0.695220000000     0.425989   
C391     C      0.001570000000     0.809710000000     0.753630000000     0.417484   
C392     C      0.001310000000     0.693160000000     0.753630000000     0.41748    
C393     C      0.251440000000     0.501430000000     0.812050000000     0.426265   
C394     C      0.251440000000     0.501430000000     0.695230000000     0.426002   
C395     C      0.251440000000     0.559710000000     0.753640000000     0.424838   
C396     C      0.251440000000     0.943160000000     0.753640000000     0.423464   
C397     C      0.251440000000     0.751430000000     0.812060000000     0.426207   
C398     C      0.251440000000     0.751430000000     0.695240000000     0.425951   
C399     C      0.251440000000     0.693160000000     0.753650000000     0.424854   
C400     C      0.251440000000     0.809710000000     0.753650000000     0.424899   
C401     C      0.001440000000     0.001430000000     0.945220000000     0.418254   
C402     C      0.001440000000     0.001430000000     0.562050000000     0.419694   
C403     C      0.059710000000     0.502020000000     0.503630000000     0.424048   
C404     C      0.443170000000     0.500850000000     0.503630000000     0.425034   
C405     C      0.501440000000     0.751430000000     0.945220000000     0.424552   
C406     C      0.501440000000     0.751430000000     0.562050000000     0.426067   
C407     C      0.443170000000     0.750840000000     0.503640000000     0.425051   
C408     C      0.059710000000     0.752020000000     0.503640000000     0.424438   
C409     C      0.251440000000     0.001430000000     0.945230000000     0.417142   
C410     C      0.251440000000     0.001430000000     0.562040000000     0.418299   
C411     C      0.309710000000     0.500980000000     0.503630000000     0.424563   
C412     C      0.193170000000     0.501890000000     0.503630000000     0.424478   
C413     C      0.251440000000     0.751430000000     0.945240000000     0.424342   
C414     C      0.251440000000     0.751430000000     0.562060000000     0.426076   
C415     C      0.309710000000     0.750980000000     0.503660000000     0.424541   
C416     C      0.193170000000     0.751890000000     0.503660000000     0.424451   
C417     C      0.360380000000     0.778650000000     0.004040000000    -0.00118964 
C418     C      0.343850000000     0.750810000000     0.503650000000    -0.106151   
C419     C      0.360300000000     0.722880000000     0.503270000000    -0.000538007
C420     C      0.392520000000     0.722830000000     0.503280000000    -0.000492894
C421     C      0.409020000000     0.750700000000     0.503650000000    -0.106254   
C422     C      0.392550000000     0.778600000000     0.004020000000    -0.00116575 
C423     C      0.110330000000     0.724270000000     0.004020000000    -0.00131057 
C424     C      0.093860000000     0.752170000000     0.503650000000    -0.106175   
C425     C      0.110360000000     0.780030000000     0.503280000000    -0.000514941
C426     C      0.142580000000     0.779980000000     0.503270000000    -0.000479324
C427     C      0.159030000000     0.752060000000     0.503650000000    -0.106205   
C428     C      0.142500000000     0.724220000000     0.004040000000    -0.00125127 
C429     C      0.392520000000     0.972830000000     0.004000000000     0.00565246 
C430     C      0.409020000000     0.500700000000     0.503630000000    -0.106258   
C431     C      0.392550000000     0.528600000000     0.503250000000    -0.000632205
C432     C      0.360380000000     0.528650000000     0.503240000000    -0.000612339
C433     C      0.343850000000     0.500810000000     0.503630000000    -0.106221   
C434     C      0.360300000000     0.972890000000     0.004010000000     0.00571771 
C435     C      0.110330000000     0.974270000000     0.503250000000     0.00586859 
C436     C      0.093860000000     0.502170000000     0.503630000000    -0.105985   
C437     C      0.110360000000     0.530040000000     0.004000000000    -0.00131675 
C438     C      0.142580000000     0.529980000000     0.004010000000    -0.00102364 
C439     C      0.159030000000     0.502060000000     0.503630000000    -0.106282   
C440     C      0.142500000000     0.974220000000     0.503240000000     0.00611909 
C441     C      0.271310000000     0.731810000000     0.644820000000     0.0012958  
C442     C      0.251440000000     0.751430000000     0.661200000000    -0.106358   
C443     C      0.231570000000     0.771060000000     0.644820000000     0.0013097  
C444     C      0.231970000000     0.771450000000     0.612480000000     0.00148969 
C445     C      0.251440000000     0.751430000000     0.596100000000    -0.106528   
C446     C      0.270910000000     0.731420000000     0.612480000000     0.00147835 
C447     C      0.271440000000     0.770920000000     0.862480000000     0.00232007 
C448     C      0.251440000000     0.751430000000     0.846100000000    -0.106486   
C449     C      0.231440000000     0.731950000000     0.862480000000     0.00231839 
C450     C      0.231830000000     0.731560000000     0.894820000000     0.00115662 
C451     C      0.251440000000     0.751430000000     0.911200000000    -0.104095   
C452     C      0.271050000000     0.771310000000     0.894820000000     0.00119317 
C453     C      0.271050000000     0.521310000000     0.612470000000     0.00137423 
C454     C      0.251440000000     0.001430000000     0.596080000000    -0.111958   
C455     C      0.231830000000     0.981560000000     0.612470000000     0.00742529 
C456     C      0.231440000000     0.981950000000     0.644810000000     0.00999463 
C457     C      0.251440000000     0.001430000000     0.661190000000    -0.115431   
C458     C      0.271440000000     0.520920000000     0.644810000000     0.00138769 
C459     C      0.270910000000     0.981420000000     0.894810000000     0.00721843 
C460     C      0.251440000000     0.001430000000     0.911190000000    -0.109714   
C461     C      0.231970000000     0.521450000000     0.894810000000     0.00115945 
C462     C      0.231570000000     0.521050000000     0.862460000000     0.00229726 
C463     C      0.251440000000     0.501430000000     0.846080000000    -0.106607   
C464     C      0.271310000000     0.981820000000     0.862460000000     0.0109192  
C465     C      0.279320000000     0.892530000000     0.752890000000    -0.000757993
C466     C      0.251440000000     0.909020000000     0.753640000000    -0.104634   
C467     C      0.223570000000     0.892530000000     0.754400000000    -0.000718561
C468     C      0.223570000000     0.860330000000     0.754400000000     7.77568e-05
C469     C      0.251440000000     0.843850000000     0.753640000000    -0.1063     
C470     C      0.279320000000     0.860340000000     0.752890000000     5.89352e-05
C471     C      0.223570000000     0.610340000000     0.752890000000    -0.000440856
C472     C      0.251440000000     0.593850000000     0.753640000000    -0.106233   
C473     C      0.279320000000     0.610340000000     0.754390000000    -0.000452751
C474     C      0.279320000000     0.642530000000     0.754400000000    -0.00048177 
C475     C      0.251440000000     0.659020000000     0.753640000000    -0.106223   
C476     C      0.223570000000     0.642530000000     0.752890000000    -0.000451678
C477     C      0.021460000000     0.731960000000     0.644800000000     0.000588577
C478     C      0.501440000000     0.751430000000     0.661180000000    -0.106342   
C479     C      0.481420000000     0.770900000000     0.644800000000     0.00132474 
C480     C      0.481820000000     0.771300000000     0.612460000000     0.00156747 
C481     C      0.501440000000     0.751430000000     0.596080000000    -0.106675   
C482     C      0.021060000000     0.731570000000     0.612460000000     0.00315814 
C483     C      0.021060000000     0.731570000000     0.894810000000     0.00284377 
C484     C      0.501440000000     0.751430000000     0.911180000000    -0.104121   
C485     C      0.481820000000     0.771300000000     0.894810000000     0.00125899 
C486     C      0.481430000000     0.770910000000     0.862460000000     0.00235792 
C487     C      0.501440000000     0.751430000000     0.846080000000    -0.106488   
C488     C      0.021460000000     0.731960000000     0.862460000000     0.0016219  
C489     C      0.021470000000     0.981970000000     0.644810000000     0.00926195 
C490     C      0.001440000000     0.001430000000     0.661180000000    -0.120808   
C491     C      0.481410000000     0.520890000000     0.644810000000     0.00131886 
C492     C      0.481810000000     0.521290000000     0.612460000000     0.0015487  
C493     C      0.001440000000     0.001430000000     0.596080000000    -0.120998   
C494     C      0.021070000000     0.981570000000     0.612460000000     0.00910888 
C495     C      0.021440000000     0.981950000000     0.862460000000     0.0102384  
C496     C      0.001440000000     0.001430000000     0.846080000000    -0.121009   
C497     C      0.481440000000     0.520920000000     0.862460000000     0.00233374 
C498     C      0.481830000000     0.521320000000     0.894810000000     0.00113852 
C499     C      0.001440000000     0.001430000000     0.911190000000    -0.118648   
C500     C      0.021050000000     0.981550000000     0.894810000000     0.00875796 
C501     C      0.029270000000     0.892590000000     0.753630000000    -0.000517468
C502     C      0.501330000000     0.909020000000     0.753630000000    -0.104596   
C503     C      0.473500000000     0.892480000000     0.753640000000    -0.000775581
C504     C      0.473610000000     0.860280000000     0.753640000000     0.000132064
C505     C      0.001550000000     0.843850000000     0.753630000000    -0.112463   
C506     C      0.029380000000     0.860390000000     0.753630000000     0.000244642
C507     C      0.029380000000     0.610390000000     0.753640000000    -0.000287152
C508     C      0.501550000000     0.593850000000     0.753630000000    -0.106191   
C509     C      0.473610000000     0.610280000000     0.753630000000    -0.000475228
C510     C      0.473510000000     0.642480000000     0.753630000000    -0.000418834
C511     C      0.001340000000     0.659020000000     0.753630000000    -0.112237   
C512     C      0.029270000000     0.642590000000     0.753640000000    -0.000207623
C513     C      0.501440000000     0.501430000000     0.312050000000     0.426019   
C514     C      0.501440000000     0.501430000000     0.195220000000     0.42594    
C515     C      0.001310000000     0.443160000000     0.253640000000     0.417498   
C516     C      0.001570000000     0.059710000000     0.253640000000     0.416685   
C517     C      0.001440000000     0.251430000000     0.312050000000     0.41842    
C518     C      0.001440000000     0.251430000000     0.195220000000     0.418432   
C519     C      0.501570000000     0.309710000000     0.253630000000     0.424784   
C520     C      0.501310000000     0.193160000000     0.253630000000     0.424853   
C521     C      0.751440000000     0.001430000000     0.312050000000     0.427245   
C522     C      0.751440000000     0.001430000000     0.195230000000     0.427193   
C523     C      0.751440000000     0.059710000000     0.253640000000     0.424125   
C524     C      0.751440000000     0.443160000000     0.253640000000     0.424813   
C525     C      0.751440000000     0.251430000000     0.312060000000     0.426019   
C526     C      0.751440000000     0.251430000000     0.195240000000     0.425991   
C527     C      0.751440000000     0.193160000000     0.253650000000     0.424852   
C528     C      0.751440000000     0.309710000000     0.253650000000     0.424762   
C529     C      0.501440000000     0.501430000000     0.445220000000     0.426219   
C530     C      0.501440000000     0.501430000000     0.062050000000     0.425365   
C531     C      0.559710000000     0.002020000000     0.003630000000     0.415988   
C532     C      0.943170000000     0.000850000000     0.003630000000     0.415044   
C533     C      0.001440000000     0.251430000000     0.445220000000     0.427334   
C534     C      0.001440000000     0.251430000000     0.062050000000     0.426591   
C535     C      0.943170000000     0.250850000000     0.003640000000     0.422346   
C536     C      0.559710000000     0.252020000000     0.003640000000     0.423813   
C537     C      0.751440000000     0.501430000000     0.445230000000     0.426278   
C538     C      0.751440000000     0.501430000000     0.062040000000     0.425136   
C539     C      0.809710000000     0.000980000000     0.003630000000     0.416064   
C540     C      0.693170000000     0.001890000000     0.003630000000     0.415875   
C541     C      0.751440000000     0.251430000000     0.445240000000     0.425905   
C542     C      0.751440000000     0.251430000000     0.062060000000     0.425342   
C543     C      0.809710000000     0.250980000000     0.003650000000     0.423434   
C544     C      0.693170000000     0.251890000000     0.003650000000     0.423245   
C545     C      0.860380000000     0.278650000000     0.504040000000    -0.000129376
C546     C      0.843850000000     0.250810000000     0.003650000000    -0.106912   
C547     C      0.860300000000     0.222890000000     0.003270000000    -0.000516542
C548     C      0.892520000000     0.222830000000     0.003280000000    -0.00138385 
C549     C      0.909020000000     0.250700000000     0.003650000000    -0.105293   
C550     C      0.892550000000     0.278590000000     0.504020000000    -0.000850578
C551     C      0.610330000000     0.224270000000     0.504020000000    -0.000620074
C552     C      0.593860000000     0.252170000000     0.003650000000    -0.106902   
C553     C      0.610360000000     0.280030000000     0.003280000000    -0.00103353 
C554     C      0.642580000000     0.279980000000     0.003270000000    -0.00109291 
C555     C      0.659030000000     0.252060000000     0.003650000000    -0.106813   
C556     C      0.642500000000     0.224220000000     0.504040000000    -0.000649862
C557     C      0.892520000000     0.472830000000     0.504000000000    -0.000780122
C558     C      0.909020000000     0.000700000000     0.003630000000    -0.111263   
C559     C      0.892550000000     0.028600000000     0.003250000000    -0.00132825 
C560     C      0.860380000000     0.028650000000     0.003240000000    -0.00044195 
C561     C      0.843850000000     0.000810000000     0.003630000000    -0.113      
C562     C      0.860300000000     0.472890000000     0.504010000000     6.60805e-05
C563     C      0.610330000000     0.474270000000     0.003250000000    -0.00132667 
C564     C      0.593860000000     0.002170000000     0.003630000000    -0.112876   
C565     C      0.610360000000     0.030040000000     0.504000000000    -0.000463711
C566     C      0.642580000000     0.029980000000     0.504010000000    -0.00025607 
C567     C      0.659030000000     0.002060000000     0.003630000000    -0.112986   
C568     C      0.642500000000     0.474220000000     0.003240000000    -0.00118318 
C569     C      0.771310000000     0.231810000000     0.144820000000     0.00143927 
C570     C      0.751440000000     0.251430000000     0.161200000000    -0.106419   
C571     C      0.731570000000     0.271050000000     0.144820000000     0.0014512  
C572     C      0.731970000000     0.271450000000     0.112480000000     0.0013101  
C573     C      0.751440000000     0.251430000000     0.096100000000    -0.106206   
C574     C      0.770910000000     0.231420000000     0.112480000000     0.00137593 
C575     C      0.771440000000     0.270920000000     0.362480000000     0.00149494 
C576     C      0.751440000000     0.251430000000     0.346100000000    -0.106455   
C577     C      0.731440000000     0.231950000000     0.362480000000     0.00146332 
C578     C      0.731830000000     0.231560000000     0.394820000000     0.00140248 
C579     C      0.751440000000     0.251430000000     0.411200000000    -0.10638    
C580     C      0.771050000000     0.271310000000     0.394820000000     0.00142304 
C581     C      0.771050000000     0.021310000000     0.112460000000     0.000646262
C582     C      0.751440000000     0.501430000000     0.096080000000    -0.106124   
C583     C      0.731830000000     0.481560000000     0.112460000000     0.00127277 
C584     C      0.731440000000     0.481950000000     0.144810000000     0.00151763 
C585     C      0.751440000000     0.501430000000     0.161190000000    -0.106492   
C586     C      0.771440000000     0.020920000000     0.144810000000     0.00310585 
C587     C      0.770910000000     0.481420000000     0.394810000000     0.00148742 
C588     C      0.751440000000     0.501430000000     0.411190000000    -0.10651    
C589     C      0.731970000000     0.021450000000     0.394810000000     0.000727161
C590     C      0.731570000000     0.021050000000     0.362460000000     0.00302571 
C591     C      0.751440000000     0.001430000000     0.346080000000    -0.115519   
C592     C      0.771310000000     0.481810000000     0.362460000000     0.00142795 
C593     C      0.779310000000     0.392530000000     0.252890000000    -0.00045808 
C594     C      0.751440000000     0.409020000000     0.253640000000    -0.106299   
C595     C      0.723570000000     0.392530000000     0.254390000000    -0.000493091
C596     C      0.723570000000     0.360340000000     0.254400000000    -0.00051722 
C597     C      0.751440000000     0.343850000000     0.253650000000    -0.106268   
C598     C      0.779310000000     0.360340000000     0.252890000000    -0.000465376
C599     C      0.723570000000     0.110340000000     0.252890000000    -0.000632575
C600     C      0.751440000000     0.093850000000     0.253640000000    -0.106169   
C601     C      0.779310000000     0.110340000000     0.254390000000    -0.000570035
C602     C      0.779310000000     0.142530000000     0.254400000000    -0.000465173
C603     C      0.751440000000     0.159020000000     0.253650000000    -0.106337   
C604     C      0.723570000000     0.142530000000     0.252890000000    -0.000507004
C605     C      0.521460000000     0.231970000000     0.144800000000     0.00146696 
C606     C      0.001440000000     0.251430000000     0.161180000000    -0.111949   
C607     C      0.981420000000     0.270900000000     0.144800000000     0.00750057 
C608     C      0.981820000000     0.271300000000     0.112460000000     0.0100114  
C609     C      0.001440000000     0.251430000000     0.096080000000    -0.115287   
C610     C      0.521060000000     0.231560000000     0.112460000000     0.00137202 
C611     C      0.521060000000     0.231560000000     0.394800000000     0.00144516 
C612     C      0.001440000000     0.251430000000     0.411180000000    -0.11538    
C613     C      0.981820000000     0.271300000000     0.394800000000     0.0101153  
C614     C      0.981420000000     0.270910000000     0.362460000000     0.00747787 
C615     C      0.001440000000     0.251430000000     0.346080000000    -0.111949   
C616     C      0.521460000000     0.231960000000     0.362460000000     0.00148231 
C617     C      0.521470000000     0.481970000000     0.144810000000     0.00140422 
C618     C      0.501440000000     0.501430000000     0.161180000000    -0.106329   
C619     C      0.981420000000     0.020890000000     0.144810000000     0.00917448 
C620     C      0.981810000000     0.021290000000     0.112460000000     0.00930283 
C621     C      0.501440000000     0.501430000000     0.096080000000    -0.106309   
C622     C      0.521070000000     0.481580000000     0.112460000000     0.00145524 
C623     C      0.521440000000     0.481950000000     0.362460000000     0.0014216  
C624     C      0.501440000000     0.501430000000     0.346090000000    -0.106432   
C625     C      0.981440000000     0.020920000000     0.362460000000     0.00903271 
C626     C      0.981830000000     0.021320000000     0.394810000000     0.00935319 
C627     C      0.501440000000     0.501430000000     0.411190000000    -0.106583   
C628     C      0.521050000000     0.481550000000     0.394810000000     0.00144076 
C629     C      0.529270000000     0.392590000000     0.253630000000    -0.000498696
C630     C      0.001340000000     0.409020000000     0.253630000000    -0.112318   
C631     C      0.973500000000     0.392480000000     0.253640000000     0.00616839 
C632     C      0.973610000000     0.360280000000     0.253640000000     0.00626801 
C633     C      0.501550000000     0.343850000000     0.253630000000    -0.106269   
C634     C      0.529380000000     0.360390000000     0.253630000000    -0.000524458
C635     C      0.529380000000     0.110390000000     0.253640000000    -0.000672632
C636     C      0.001550000000     0.093850000000     0.253630000000    -0.112316   
C637     C      0.973610000000     0.110280000000     0.253630000000     0.00616238 
C638     C      0.973500000000     0.142480000000     0.253630000000     0.00615937 
C639     C      0.501330000000     0.159020000000     0.253630000000    -0.106339   
C640     C      0.529270000000     0.142590000000     0.253640000000    -0.000491388
C641     C      0.501440000000     0.501430000000     0.812050000000     0.4263     
C642     C      0.501440000000     0.501430000000     0.695220000000     0.425888   
C643     C      0.001310000000     0.443160000000     0.753640000000     0.417532   
C644     C      0.001570000000     0.059710000000     0.753640000000     0.41672    
C645     C      0.001440000000     0.251430000000     0.812050000000     0.41862    
C646     C      0.001440000000     0.251430000000     0.695220000000     0.418403   
C647     C      0.501570000000     0.309710000000     0.753630000000     0.424798   
C648     C      0.501310000000     0.193160000000     0.753630000000     0.424867   
C649     C      0.751440000000     0.001430000000     0.812050000000     0.427417   
C650     C      0.751440000000     0.001430000000     0.695230000000     0.427147   
C651     C      0.751440000000     0.059710000000     0.753640000000     0.424139   
C652     C      0.751440000000     0.443160000000     0.753640000000     0.424826   
C653     C      0.751440000000     0.251430000000     0.812060000000     0.426194   
C654     C      0.751440000000     0.251430000000     0.695240000000     0.425944   
C655     C      0.751440000000     0.193160000000     0.753650000000     0.424866   
C656     C      0.751440000000     0.309710000000     0.753650000000     0.424776   
C657     C      0.501440000000     0.501430000000     0.945220000000     0.42465    
C658     C      0.501440000000     0.501430000000     0.562050000000     0.426118   
C659     C      0.559710000000     0.002020000000     0.503630000000     0.417209   
C660     C      0.943170000000     0.000850000000     0.503630000000     0.416267   
C661     C      0.001440000000     0.251430000000     0.945220000000     0.425739   
C662     C      0.001440000000     0.251430000000     0.562050000000     0.427251   
C663     C      0.943170000000     0.250850000000     0.503640000000     0.423616   
C664     C      0.559710000000     0.252020000000     0.503640000000     0.425083   
C665     C      0.751440000000     0.501430000000     0.945230000000     0.424729   
C666     C      0.751440000000     0.501430000000     0.562040000000     0.425887   
C667     C      0.809710000000     0.000980000000     0.503630000000     0.417297   
C668     C      0.693170000000     0.001890000000     0.503630000000     0.417109   
C669     C      0.751440000000     0.251430000000     0.945240000000     0.424351   
C670     C      0.751440000000     0.251430000000     0.562060000000     0.426085   
C671     C      0.809710000000     0.250980000000     0.503660000000     0.424676   
C672     C      0.693170000000     0.251890000000     0.503660000000     0.424487   
C673     C      0.860380000000     0.278650000000     0.004040000000    -0.000723396
C674     C      0.843850000000     0.250810000000     0.503650000000    -0.10631    
C675     C      0.860300000000     0.222890000000     0.503270000000     7.18065e-05
C676     C      0.892520000000     0.222830000000     0.503280000000    -0.000786968
C677     C      0.909020000000     0.250700000000     0.503650000000    -0.104705   
C678     C      0.892550000000     0.278590000000     0.004020000000    -0.00145411 
C679     C      0.610330000000     0.224270000000     0.004020000000    -0.00122378 
C680     C      0.593860000000     0.252170000000     0.503650000000    -0.106312   
C681     C      0.610360000000     0.280030000000     0.503280000000    -0.000436217
C682     C      0.642580000000     0.279980000000     0.503270000000    -0.00050259 
C683     C      0.659030000000     0.252060000000     0.503650000000    -0.106211   
C684     C      0.642500000000     0.224220000000     0.004040000000    -0.00124512 
C685     C      0.892520000000     0.472830000000     0.004000000000    -0.00136892 
C686     C      0.909020000000     0.000700000000     0.503630000000    -0.110682   
C687     C      0.892550000000     0.028600000000     0.503250000000    -0.000728872
C688     C      0.860380000000     0.028650000000     0.503240000000     0.000151108
C689     C      0.843850000000     0.000810000000     0.503630000000    -0.112423   
C690     C      0.860300000000     0.472890000000     0.004010000000    -0.000534982
C691     C      0.610330000000     0.474270000000     0.503250000000    -0.000725943
C692     C      0.593860000000     0.002170000000     0.503630000000    -0.112292   
C693     C      0.610360000000     0.030040000000     0.004000000000    -0.00105125 
C694     C      0.642580000000     0.029980000000     0.004010000000    -0.000857948
C695     C      0.659030000000     0.002060000000     0.503630000000    -0.112409   
C696     C      0.642500000000     0.474220000000     0.503240000000    -0.000587441
C697     C      0.771310000000     0.231810000000     0.644820000000     0.00134053 
C698     C      0.751440000000     0.251430000000     0.661200000000    -0.106407   
C699     C      0.731570000000     0.271050000000     0.644820000000     0.00135253 
C700     C      0.731970000000     0.271450000000     0.612480000000     0.00141718 
C701     C      0.751440000000     0.251430000000     0.596100000000    -0.106509   
C702     C      0.770910000000     0.231420000000     0.612480000000     0.00148306 
C703     C      0.771440000000     0.270920000000     0.862480000000     0.00235373 
C704     C      0.751440000000     0.251430000000     0.846100000000    -0.106504   
C705     C      0.731440000000     0.231950000000     0.862480000000     0.00232277 
C706     C      0.731830000000     0.231560000000     0.894820000000     0.00115263 
C707     C      0.751440000000     0.251430000000     0.911200000000    -0.104085   
C708     C      0.771050000000     0.271310000000     0.894820000000     0.00117334 
C709     C      0.771050000000     0.021310000000     0.612470000000     0.000746743
C710     C      0.751440000000     0.501430000000     0.596080000000    -0.10642    
C711     C      0.731830000000     0.481560000000     0.612470000000     0.00137936 
C712     C      0.731440000000     0.481950000000     0.644810000000     0.00141983 
C713     C      0.751440000000     0.501430000000     0.661190000000    -0.10648    
C714     C      0.771440000000     0.020920000000     0.644810000000     0.00301146 
C715     C      0.770910000000     0.481420000000     0.894810000000     0.00123704 
C716     C      0.751440000000     0.501430000000     0.911190000000    -0.104207   
C717     C      0.731970000000     0.021450000000     0.894810000000     0.000478868
C718     C      0.731570000000     0.021050000000     0.862460000000     0.00388269 
C719     C      0.751440000000     0.001430000000     0.846080000000    -0.115555   
C720     C      0.771310000000     0.481810000000     0.862460000000     0.00228836 
C721     C      0.779310000000     0.392530000000     0.752890000000    -0.000396421
C722     C      0.751440000000     0.409020000000     0.753640000000    -0.106219   
C723     C      0.723570000000     0.392530000000     0.754400000000    -0.000420917
C724     C      0.723570000000     0.360340000000     0.754400000000    -0.000443704
C725     C      0.751440000000     0.343850000000     0.753640000000    -0.106189   
C726     C      0.779310000000     0.360340000000     0.752890000000    -0.000401186
C727     C      0.723570000000     0.110340000000     0.752890000000    -0.000570312
C728     C      0.751440000000     0.093850000000     0.753640000000    -0.10609    
C729     C      0.779310000000     0.110340000000     0.754390000000    -0.000496481
C730     C      0.779310000000     0.142530000000     0.754400000000    -0.000392886
C731     C      0.751440000000     0.159020000000     0.753640000000    -0.106258   
C732     C      0.723570000000     0.142530000000     0.752890000000    -0.000443053
C733     C      0.521460000000     0.231970000000     0.644800000000     0.00137063 
C734     C      0.001440000000     0.251430000000     0.661180000000    -0.11193    
C735     C      0.981420000000     0.270900000000     0.644800000000     0.00739016 
C736     C      0.981820000000     0.271300000000     0.612460000000     0.010099   
C737     C      0.001440000000     0.251430000000     0.596080000000    -0.115575   
C738     C      0.521060000000     0.231560000000     0.612460000000     0.00147232 
C739     C      0.521060000000     0.231560000000     0.894810000000     0.00118562 
C740     C      0.001440000000     0.251430000000     0.911180000000    -0.113028   
C741     C      0.981820000000     0.271300000000     0.894810000000     0.00981299 
C742     C      0.981420000000     0.270910000000     0.862460000000     0.00831729 
C743     C      0.001440000000     0.251430000000     0.846080000000    -0.111978   
C744     C      0.521460000000     0.231960000000     0.862460000000     0.00234833 
C745     C      0.521470000000     0.481970000000     0.644810000000     0.00129887 
C746     C      0.501440000000     0.501430000000     0.661180000000    -0.106316   
C747     C      0.981420000000     0.020890000000     0.644810000000     0.00905646 
C748     C      0.981810000000     0.021290000000     0.612460000000     0.00941066 
C749     C      0.501440000000     0.501430000000     0.596080000000    -0.106627   
C750     C      0.521070000000     0.481580000000     0.612460000000     0.001579   
C751     C      0.521440000000     0.481950000000     0.862460000000     0.00234365 
C752     C      0.501440000000     0.501430000000     0.846080000000    -0.106621   
C753     C      0.981440000000     0.020920000000     0.862460000000     0.00991609 
C754     C      0.981830000000     0.021320000000     0.894810000000     0.00901875 
C755     C      0.501440000000     0.501430000000     0.911190000000    -0.104257   
C756     C      0.521050000000     0.481550000000     0.894810000000     0.00115197 
C757     C      0.529270000000     0.392590000000     0.753630000000    -0.00043116 
C758     C      0.001340000000     0.409020000000     0.753630000000    -0.112222   
C759     C      0.973500000000     0.392480000000     0.753640000000     0.00621628 
C760     C      0.973610000000     0.360280000000     0.753640000000     0.0063128  
C761     C      0.501550000000     0.343850000000     0.753630000000    -0.10619    
C762     C      0.529380000000     0.360390000000     0.753630000000    -0.000453661
C763     C      0.529380000000     0.110390000000     0.753640000000    -0.00060345 
C764     C      0.001550000000     0.093850000000     0.753630000000    -0.11222    
C765     C      0.973610000000     0.110280000000     0.753630000000     0.00620888 
C766     C      0.973500000000     0.142480000000     0.753630000000     0.00620883 
C767     C      0.501330000000     0.159020000000     0.753630000000    -0.10626    
C768     C      0.529270000000     0.142590000000     0.753640000000    -0.000425588
C769     C      0.501440000000     0.001430000000     0.312050000000     0.427181   
C770     C      0.501440000000     0.001430000000     0.195220000000     0.427119   
C771     C      0.001310000000     0.943160000000     0.253640000000     0.416103   
C772     C      0.001570000000     0.559710000000     0.253640000000     0.417307   
C773     C      0.001440000000     0.751430000000     0.312050000000     0.418421   
C774     C      0.001440000000     0.751430000000     0.195220000000     0.41842    
C775     C      0.501570000000     0.809710000000     0.253630000000     0.424907   
C776     C      0.501310000000     0.693160000000     0.253630000000     0.424784   
C777     C      0.751440000000     0.501430000000     0.312050000000     0.426064   
C778     C      0.751440000000     0.501430000000     0.195230000000     0.426025   
C779     C      0.751440000000     0.559710000000     0.253640000000     0.424811   
C780     C      0.751440000000     0.943160000000     0.253640000000     0.423436   
C781     C      0.751440000000     0.751430000000     0.312060000000     0.426008   
C782     C      0.751440000000     0.751430000000     0.195240000000     0.425973   
C783     C      0.751440000000     0.693160000000     0.253650000000     0.424826   
C784     C      0.751440000000     0.809710000000     0.253650000000     0.424871   
C785     C      0.501440000000     0.001430000000     0.445220000000     0.418609   
C786     C      0.501440000000     0.001430000000     0.062050000000     0.417759   
C787     C      0.559710000000     0.502020000000     0.003630000000     0.423425   
C788     C      0.943170000000     0.500850000000     0.003630000000     0.422315   
C789     C      0.001440000000     0.751430000000     0.445220000000     0.427321   
C790     C      0.001440000000     0.751430000000     0.062050000000     0.426585   
C791     C      0.943170000000     0.750840000000     0.003640000000     0.42231    
C792     C      0.559710000000     0.752020000000     0.003640000000     0.423792   
C793     C      0.751440000000     0.001430000000     0.445230000000     0.418662   
C794     C      0.751440000000     0.001430000000     0.062040000000     0.417555   
C795     C      0.809710000000     0.500980000000     0.003630000000     0.42341    
C796     C      0.693170000000     0.501890000000     0.003630000000     0.423234   
C797     C      0.751440000000     0.751430000000     0.445240000000     0.425883   
C798     C      0.751440000000     0.751430000000     0.062060000000     0.425326   
C799     C      0.809710000000     0.750980000000     0.003650000000     0.423404   
C800     C      0.693170000000     0.751890000000     0.003650000000     0.423222   
C801     C      0.860380000000     0.778650000000     0.504040000000    -7.92102e-05
C802     C      0.843850000000     0.750810000000     0.003650000000    -0.106878   
C803     C      0.860300000000     0.722880000000     0.003270000000    -0.000609856
C804     C      0.892520000000     0.722830000000     0.003280000000    -0.00138208 
C805     C      0.909020000000     0.750700000000     0.003650000000    -0.105259   
C806     C      0.892550000000     0.778600000000     0.504020000000    -0.00089781 
C807     C      0.610330000000     0.724270000000     0.504020000000    -0.000633184
C808     C      0.593860000000     0.752170000000     0.003650000000    -0.106895   
C809     C      0.610360000000     0.780030000000     0.003280000000    -0.00101661 
C810     C      0.642580000000     0.779980000000     0.003270000000    -0.00107742 
C811     C      0.659030000000     0.752060000000     0.003650000000    -0.106806   
C812     C      0.642500000000     0.724220000000     0.504040000000    -0.000663588
C813     C      0.892520000000     0.972830000000     0.504000000000     0.00594754 
C814     C      0.909020000000     0.500700000000     0.003630000000    -0.105274   
C815     C      0.892550000000     0.528600000000     0.003250000000    -0.00156959 
C816     C      0.860380000000     0.528650000000     0.003240000000    -0.000692107
C817     C      0.843850000000     0.500810000000     0.003630000000    -0.10694    
C818     C      0.860300000000     0.972890000000     0.504010000000     0.00683968 
C819     C      0.610330000000     0.974270000000     0.003250000000     0.00533567 
C820     C      0.593860000000     0.502170000000     0.003630000000    -0.106716   
C821     C      0.610360000000     0.530040000000     0.504000000000    -0.0006329  
C822     C      0.642580000000     0.529980000000     0.504010000000    -0.000428419
C823     C      0.659030000000     0.502060000000     0.003630000000    -0.106875   
C824     C      0.642500000000     0.974220000000     0.003240000000     0.00550427 
C825     C      0.771310000000     0.731810000000     0.144820000000     0.00142115 
C826     C      0.751440000000     0.751430000000     0.161200000000    -0.106356   
C827     C      0.731570000000     0.771060000000     0.144820000000     0.00140421 
C828     C      0.731970000000     0.771450000000     0.112480000000     0.00138323 
C829     C      0.751440000000     0.751430000000     0.096100000000    -0.106206   
C830     C      0.770910000000     0.731420000000     0.112480000000     0.00139317 
C831     C      0.771440000000     0.770920000000     0.362480000000     0.00148833 
C832     C      0.751440000000     0.751430000000     0.346100000000    -0.106421   
C833     C      0.731440000000     0.731950000000     0.362480000000     0.00145555 
C834     C      0.731830000000     0.731560000000     0.394820000000     0.00140566 
C835     C      0.751440000000     0.751430000000     0.411200000000    -0.106371   
C836     C      0.771050000000     0.771310000000     0.394820000000     0.00146577 
C837     C      0.771050000000     0.521310000000     0.112460000000     0.00129024 
C838     C      0.751440000000     0.001430000000     0.096080000000    -0.111639   
C839     C      0.731830000000     0.981560000000     0.112460000000     0.00731528 
C840     C      0.731440000000     0.981950000000     0.144810000000     0.0100828  
C841     C      0.751440000000     0.001430000000     0.161190000000    -0.115418   
C842     C      0.771440000000     0.520920000000     0.144810000000     0.00151447 
C843     C      0.770910000000     0.981420000000     0.394810000000     0.00750356 
C844     C      0.751440000000     0.001430000000     0.411190000000    -0.112007   
C845     C      0.731970000000     0.521450000000     0.394810000000     0.00141001 
C846     C      0.731570000000     0.521050000000     0.362460000000     0.00143047 
C847     C      0.751440000000     0.501430000000     0.346080000000    -0.106542   
C848     C      0.771310000000     0.981820000000     0.362460000000     0.010093   
C849     C      0.779310000000     0.892530000000     0.252890000000    -0.000759941
C850     C      0.751440000000     0.909020000000     0.253640000000    -0.104733   
C851     C      0.723570000000     0.892530000000     0.254390000000    -0.000803185
C852     C      0.723570000000     0.860330000000     0.254400000000    -6.93436e-06
C853     C      0.751440000000     0.843850000000     0.253650000000    -0.1064     
C854     C      0.779310000000     0.860340000000     0.252890000000     5.70283e-05
C855     C      0.723570000000     0.610340000000     0.252890000000    -0.000514832
C856     C      0.751440000000     0.593850000000     0.253640000000    -0.106333   
C857     C      0.779310000000     0.610340000000     0.254390000000    -0.00046403 
C858     C      0.779310000000     0.642530000000     0.254400000000    -0.000494194
C859     C      0.751440000000     0.659020000000     0.253650000000    -0.106321   
C860     C      0.723570000000     0.642530000000     0.252890000000    -0.000528175
C861     C      0.521460000000     0.731960000000     0.144800000000     0.00135238 
C862     C      0.001440000000     0.751430000000     0.161180000000    -0.111874   
C863     C      0.981420000000     0.770900000000     0.144800000000     0.00748542 
C864     C      0.981820000000     0.771300000000     0.112460000000     0.0100671  
C865     C      0.001440000000     0.751430000000     0.096080000000    -0.115327   
C866     C      0.521060000000     0.731570000000     0.112460000000     0.00147502 
C867     C      0.521060000000     0.731570000000     0.394800000000     0.00150736 
C868     C      0.001440000000     0.751430000000     0.411180000000    -0.115398   
C869     C      0.981820000000     0.771300000000     0.394800000000     0.0101539  
C870     C      0.981420000000     0.770910000000     0.362460000000     0.00748335 
C871     C      0.001440000000     0.751430000000     0.346080000000    -0.111914   
C872     C      0.521460000000     0.731960000000     0.362460000000     0.00144282 
C873     C      0.521470000000     0.981970000000     0.144810000000     0.0100231  
C874     C      0.501440000000     0.001430000000     0.161180000000    -0.115282   
C875     C      0.981420000000     0.520890000000     0.144810000000     0.00757473 
C876     C      0.981810000000     0.521290000000     0.112460000000     0.00999088 
C877     C      0.501440000000     0.001430000000     0.096080000000    -0.111783   
C878     C      0.521070000000     0.981570000000     0.112460000000     0.00742901 
C879     C      0.521440000000     0.981950000000     0.362460000000     0.0100149  
C880     C      0.501440000000     0.001430000000     0.346090000000    -0.115368   
C881     C      0.981440000000     0.520920000000     0.362460000000     0.00749172 
C882     C      0.981830000000     0.521320000000     0.394810000000     0.0100242  
C883     C      0.501440000000     0.001430000000     0.411190000000    -0.112107   
C884     C      0.521050000000     0.981550000000     0.394810000000     0.00750719 
C885     C      0.529270000000     0.892590000000     0.253630000000    -0.000837647
C886     C      0.001340000000     0.909020000000     0.253630000000    -0.110728   
C887     C      0.973500000000     0.892480000000     0.253640000000     0.00586674 
C888     C      0.973610000000     0.860280000000     0.253640000000     0.0067896  
C889     C      0.501550000000     0.843850000000     0.253630000000    -0.106408   
C890     C      0.529380000000     0.860390000000     0.253630000000    -1.39185e-05
C891     C      0.529380000000     0.610390000000     0.253640000000    -0.000567992
C892     C      0.001550000000     0.593850000000     0.253630000000    -0.112457   
C893     C      0.973610000000     0.610280000000     0.253630000000     0.00624933 
C894     C      0.973500000000     0.642480000000     0.253630000000     0.00613439 
C895     C      0.501330000000     0.659020000000     0.253630000000    -0.106326   
C896     C      0.529270000000     0.642590000000     0.253640000000    -0.000499886
C897     C      0.501440000000     0.001430000000     0.812050000000     0.427461   
C898     C      0.501440000000     0.001430000000     0.695220000000     0.427068   
C899     C      0.001310000000     0.943160000000     0.753640000000     0.416138   
C900     C      0.001570000000     0.559710000000     0.753640000000     0.417342   
C901     C      0.001440000000     0.751430000000     0.812050000000     0.418621   
C902     C      0.001440000000     0.751430000000     0.695220000000     0.41839    
C903     C      0.501570000000     0.809710000000     0.753630000000     0.424921   
C904     C      0.501310000000     0.693160000000     0.753630000000     0.424798   
C905     C      0.751440000000     0.501430000000     0.812050000000     0.42624    
C906     C      0.751440000000     0.501430000000     0.695230000000     0.425978   
C907     C      0.751440000000     0.559710000000     0.753640000000     0.424824   
C908     C      0.751440000000     0.943160000000     0.753640000000     0.42345    
C909     C      0.751440000000     0.751430000000     0.812060000000     0.426183   
C910     C      0.751440000000     0.751430000000     0.695240000000     0.425926   
C911     C      0.751440000000     0.693160000000     0.753650000000     0.42484    
C912     C      0.751440000000     0.809710000000     0.753650000000     0.424885   
C913     C      0.501440000000     0.001430000000     0.945220000000     0.417067   
C914     C      0.501440000000     0.001430000000     0.562050000000     0.418494   
C915     C      0.559710000000     0.502020000000     0.503630000000     0.424669   
C916     C      0.943170000000     0.500850000000     0.503630000000     0.42356    
C917     C      0.001440000000     0.751430000000     0.945220000000     0.425727   
C918     C      0.001440000000     0.751430000000     0.562050000000     0.427245   
C919     C      0.943170000000     0.750840000000     0.503640000000     0.42358    
C920     C      0.559710000000     0.752020000000     0.503640000000     0.425062   
C921     C      0.751440000000     0.001430000000     0.945230000000     0.417139   
C922     C      0.751440000000     0.001430000000     0.562040000000     0.418285   
C923     C      0.809710000000     0.500980000000     0.503630000000     0.424666   
C924     C      0.693170000000     0.501890000000     0.503630000000     0.424491   
C925     C      0.751440000000     0.751430000000     0.945240000000     0.424331   
C926     C      0.751440000000     0.751430000000     0.562060000000     0.426069   
C927     C      0.809710000000     0.750980000000     0.503660000000     0.424644   
C928     C      0.693170000000     0.751890000000     0.503660000000     0.424464   
C929     C      0.860380000000     0.778650000000     0.004040000000    -0.000673224
C930     C      0.843850000000     0.750810000000     0.503650000000    -0.106275   
C931     C      0.860300000000     0.722880000000     0.503270000000    -2.10049e-05
C932     C      0.892520000000     0.722830000000     0.503280000000    -0.000784794
C933     C      0.909020000000     0.750700000000     0.503650000000    -0.104671   
C934     C      0.892550000000     0.778600000000     0.004020000000    -0.00150154 
C935     C      0.610330000000     0.724270000000     0.004020000000    -0.00123739 
C936     C      0.593860000000     0.752170000000     0.503650000000    -0.106304   
C937     C      0.610360000000     0.780030000000     0.503280000000    -0.000419158
C938     C      0.642580000000     0.779980000000     0.503270000000    -0.000486966
C939     C      0.659030000000     0.752060000000     0.503650000000    -0.106203   
C940     C      0.642500000000     0.724220000000     0.004040000000    -0.00125934 
C941     C      0.892520000000     0.972830000000     0.004000000000     0.00534564 
C942     C      0.909020000000     0.500700000000     0.503630000000    -0.104676   
C943     C      0.892550000000     0.528600000000     0.503250000000    -0.000969039
C944     C      0.860380000000     0.528650000000     0.503240000000    -9.79961e-05
C945     C      0.843850000000     0.500810000000     0.503630000000    -0.106345   
C946     C      0.860300000000     0.972890000000     0.004010000000     0.00622508 
C947     C      0.610330000000     0.974270000000     0.503250000000     0.00594957 
C948     C      0.593860000000     0.502170000000     0.503630000000    -0.106115   
C949     C      0.610360000000     0.530040000000     0.004000000000    -0.00122156 
C950     C      0.642580000000     0.529980000000     0.004010000000    -0.00103147 
C951     C      0.659030000000     0.502060000000     0.503630000000    -0.10628    
C952     C      0.642500000000     0.974220000000     0.503240000000     0.00611326 
C953     C      0.771310000000     0.731810000000     0.644820000000     0.00132242 
C954     C      0.751440000000     0.751430000000     0.661200000000    -0.106343   
C955     C      0.731570000000     0.771060000000     0.644820000000     0.00130558 
C956     C      0.731970000000     0.771450000000     0.612480000000     0.00149025 
C957     C      0.751440000000     0.751430000000     0.596100000000    -0.106509   
C958     C      0.770910000000     0.731420000000     0.612480000000     0.00150023 
C959     C      0.771440000000     0.770920000000     0.862480000000     0.00234652 
C960     C      0.751440000000     0.751430000000     0.846100000000    -0.10647    
C961     C      0.731440000000     0.731950000000     0.862480000000     0.00231469 
C962     C      0.731830000000     0.731560000000     0.894820000000     0.00115605 
C963     C      0.751440000000     0.751430000000     0.911200000000    -0.104077   
C964     C      0.771050000000     0.771310000000     0.894820000000     0.00121606 
C965     C      0.771050000000     0.521310000000     0.612470000000     0.00139677 
C966     C      0.751440000000     0.001430000000     0.596080000000    -0.111934   
C967     C      0.731830000000     0.981560000000     0.612470000000     0.00742076 
C968     C      0.731440000000     0.981950000000     0.644810000000     0.00998915 
C969     C      0.751440000000     0.001430000000     0.661190000000    -0.115413   
C970     C      0.771440000000     0.520920000000     0.644810000000     0.00141662 
C971     C      0.770910000000     0.981420000000     0.894810000000     0.00723637 
C972     C      0.751440000000     0.001430000000     0.911190000000    -0.109698   
C973     C      0.731970000000     0.521450000000     0.894810000000     0.00116079 
C974     C      0.731570000000     0.521050000000     0.862460000000     0.00229102 
C975     C      0.751440000000     0.501430000000     0.846080000000    -0.106591   
C976     C      0.771310000000     0.981820000000     0.862460000000     0.0109382  
C977     C      0.779310000000     0.892530000000     0.752890000000    -0.000698137
C978     C      0.751440000000     0.909020000000     0.753640000000    -0.104653   
C979     C      0.723570000000     0.892530000000     0.754400000000    -0.000730866
C980     C      0.723570000000     0.860330000000     0.754400000000     6.60067e-05
C981     C      0.751440000000     0.843850000000     0.753640000000    -0.106321   
C982     C      0.779310000000     0.860340000000     0.752890000000     0.000120744
C983     C      0.723570000000     0.610340000000     0.752890000000    -0.000452539
C984     C      0.751440000000     0.593850000000     0.753640000000    -0.106254   
C985     C      0.779310000000     0.610340000000     0.754390000000    -0.000390456
C986     C      0.779310000000     0.642530000000     0.754400000000    -0.000421862
C987     C      0.751440000000     0.659020000000     0.753640000000    -0.106242   
C988     C      0.723570000000     0.642530000000     0.752890000000    -0.000464171
C989     C      0.521460000000     0.731960000000     0.644800000000     0.00125604 
C990     C      0.001440000000     0.751430000000     0.661180000000    -0.111855   
C991     C      0.981420000000     0.770900000000     0.644800000000     0.00737504 
C992     C      0.981820000000     0.771300000000     0.612460000000     0.0101546  
C993     C      0.001440000000     0.751430000000     0.596080000000    -0.115614   
C994     C      0.521060000000     0.731570000000     0.612460000000     0.00157527 
C995     C      0.521060000000     0.731570000000     0.894810000000     0.00124803 
C996     C      0.001440000000     0.751430000000     0.911180000000    -0.113048   
C997     C      0.981820000000     0.771300000000     0.894810000000     0.00985153 
C998     C      0.981420000000     0.770910000000     0.862460000000     0.00832219 
C999     C      0.001440000000     0.751430000000     0.846080000000    -0.111942   
C1000    C      0.521460000000     0.731960000000     0.862460000000     0.0023086  
C1001    C      0.521470000000     0.981970000000     0.644810000000     0.00992037 
C1002    C      0.501440000000     0.001430000000     0.661180000000    -0.115276   
C1003    C      0.981420000000     0.520890000000     0.644810000000     0.00745621 
C1004    C      0.981810000000     0.521290000000     0.612460000000     0.0100999  
C1005    C      0.501440000000     0.001430000000     0.596080000000    -0.112105   
C1006    C      0.521070000000     0.981570000000     0.612460000000     0.00755801 
C1007    C      0.521440000000     0.981950000000     0.862460000000     0.0109172  
C1008    C      0.501440000000     0.001430000000     0.846080000000    -0.115538   
C1009    C      0.981440000000     0.520920000000     0.862460000000     0.00838309 
C1010    C      0.981830000000     0.521320000000     0.894810000000     0.00968666 
C1011    C      0.501440000000     0.001430000000     0.911190000000    -0.109776   
C1012    C      0.521050000000     0.981550000000     0.894810000000     0.00720351 
C1013    C      0.529270000000     0.892590000000     0.753630000000    -0.000770021
C1014    C      0.001340000000     0.909020000000     0.753630000000    -0.110633   
C1015    C      0.973500000000     0.892480000000     0.753640000000     0.00591474 
C1016    C      0.973610000000     0.860280000000     0.753640000000     0.00683393 
C1017    C      0.501550000000     0.843850000000     0.753630000000    -0.106328   
C1018    C      0.529380000000     0.860390000000     0.753630000000     5.63859e-05
C1019    C      0.529380000000     0.610390000000     0.753640000000    -0.000498842
C1020    C      0.001550000000     0.593850000000     0.753630000000    -0.112361   
C1021    C      0.973610000000     0.610280000000     0.753630000000     0.00629576 
C1022    C      0.973500000000     0.642480000000     0.753630000000     0.00618391 
C1023    C      0.501330000000     0.659020000000     0.753630000000    -0.106247   
C1024    C      0.529270000000     0.642590000000     0.753640000000    -0.000434006
H1       H      0.348500000000     0.300590000000     0.504330000000     0.0387301  
H2       H      0.348320000000     0.201000000000     0.002980000000     0.0378032  
H3       H      0.404460000000     0.200930000000     0.002980000000     0.0378456  
H4       H      0.404470000000     0.300510000000     0.504320000000     0.0386532  
H5       H      0.098410000000     0.202360000000     0.504320000000     0.0384711  
H6       H      0.098420000000     0.301940000000     0.002980000000     0.0376466  
H7       H      0.154570000000     0.301870000000     0.002980000000     0.0377654  
H8       H      0.154380000000     0.202280000000     0.504330000000     0.0386145  
H9       H      0.404460000000     0.450920000000     0.504300000000     0.0387178  
H10      H      0.404470000000     0.050510000000     0.002950000000     0.037578   
H11      H      0.348500000000     0.050590000000     0.002950000000     0.0376006  
H12      H      0.348320000000     0.451000000000     0.504300000000     0.0386834  
H13      H      0.098410000000     0.452360000000     0.002950000000     0.0376573  
H14      H      0.098420000000     0.051940000000     0.504300000000     0.0382578  
H15      H      0.154570000000     0.051870000000     0.504300000000     0.0383174  
H16      H      0.154380000000     0.452280000000     0.002950000000     0.037768   
H17      H      0.286730000000     0.216420000000     0.157040000000     0.0355111  
H18      H      0.216150000000     0.286450000000     0.157040000000     0.0354965  
H19      H      0.216680000000     0.286980000000     0.100260000000     0.0354799  
H20      H      0.286200000000     0.215890000000     0.100260000000     0.0354918  
H21      H      0.286970000000     0.286220000000     0.350260000000     0.0354845  
H22      H      0.215910000000     0.216650000000     0.350260000000     0.0354242  
H23      H      0.216440000000     0.216130000000     0.407040000000     0.035433   
H24      H      0.286440000000     0.286740000000     0.407040000000     0.0354886  
H25      H      0.286440000000     0.036740000000     0.100240000000     0.0352338  
H26      H      0.216440000000     0.466130000000     0.100240000000     0.0354538  
H27      H      0.215910000000     0.466650000000     0.157030000000     0.0354313  
H28      H      0.286970000000     0.036210000000     0.157030000000     0.0346591  
H29      H      0.286200000000     0.465890000000     0.407030000000     0.0354948  
H30      H      0.216680000000     0.036980000000     0.407030000000     0.0351782  
H31      H      0.216150000000     0.036450000000     0.350240000000     0.0346214  
H32      H      0.286730000000     0.466420000000     0.350240000000     0.035525   
H33      H      0.301220000000     0.404460000000     0.252300000000     0.0387945  
H34      H      0.201660000000     0.404460000000     0.254980000000     0.0386688  
H35      H      0.201660000000     0.348410000000     0.254990000000     0.038759   
H36      H      0.301220000000     0.348410000000     0.252300000000     0.038725   
H37      H      0.201660000000     0.098410000000     0.252300000000     0.0385454  
H38      H      0.301220000000     0.098410000000     0.254980000000     0.0385565  
H39      H      0.301220000000     0.154460000000     0.254990000000     0.0387427  
H40      H      0.201660000000     0.154460000000     0.252300000000     0.0385959  
H41      H      0.037000000000     0.216690000000     0.157030000000     0.0351388  
H42      H      0.465890000000     0.286180000000     0.157030000000     0.0354771  
H43      H      0.466430000000     0.286730000000     0.100230000000     0.0354277  
H44      H      0.036460000000     0.216140000000     0.100230000000     0.0345311  
H45      H      0.036450000000     0.216140000000     0.407030000000     0.0344258  
H46      H      0.466430000000     0.286730000000     0.407030000000     0.0352997  
H47      H      0.465890000000     0.286180000000     0.350230000000     0.0353096  
H48      H      0.036990000000     0.216680000000     0.350230000000     0.0349975  
H49      H      0.037010000000     0.466700000000     0.157030000000     0.0350289  
H50      H      0.465870000000     0.036160000000     0.157030000000     0.0344949  
H51      H      0.466410000000     0.036710000000     0.100240000000     0.0350391  
H52      H      0.036470000000     0.466160000000     0.100240000000     0.0344171  
H53      H      0.036970000000     0.466660000000     0.350240000000     0.0351598  
H54      H      0.465910000000     0.036200000000     0.350240000000     0.0346164  
H55      H      0.466450000000     0.036750000000     0.407030000000     0.0351507  
H56      H      0.036430000000     0.466120000000     0.407030000000     0.0345731  
H57      H      0.051160000000     0.404560000000     0.253630000000     0.0384026  
H58      H      0.451570000000     0.404360000000     0.253640000000     0.0388227  
H59      H      0.451720000000     0.348310000000     0.253640000000     0.0386485  
H60      H      0.051320000000     0.348510000000     0.253630000000     0.038525   
H61      H      0.051320000000     0.098510000000     0.253640000000     0.0382948  
H62      H      0.451720000000     0.098310000000     0.253630000000     0.038517   
H63      H      0.451570000000     0.154360000000     0.253630000000     0.0387459  
H64      H      0.051160000000     0.154560000000     0.253640000000     0.0383269  
H65      H      0.348500000000     0.300590000000     0.004330000000     0.0378596  
H66      H      0.348320000000     0.201000000000     0.502980000000     0.0386676  
H67      H      0.404460000000     0.200930000000     0.502980000000     0.0387151  
H68      H      0.404470000000     0.300510000000     0.004320000000     0.0377923  
H69      H      0.098410000000     0.202360000000     0.004320000000     0.0376121  
H70      H      0.098420000000     0.301940000000     0.502980000000     0.0385165  
H71      H      0.154570000000     0.301870000000     0.502980000000     0.0386304  
H72      H      0.154380000000     0.202280000000     0.004330000000     0.0377453  
H73      H      0.404460000000     0.450920000000     0.004300000000     0.0378662  
H74      H      0.404470000000     0.050510000000     0.502950000000     0.0384606  
H75      H      0.348500000000     0.050590000000     0.502950000000     0.0384647  
H76      H      0.348320000000     0.451000000000     0.004300000000     0.0378158  
H77      H      0.098410000000     0.452360000000     0.502950000000     0.0385415  
H78      H      0.098420000000     0.051940000000     0.004300000000     0.0374095  
H79      H      0.154570000000     0.051870000000     0.004300000000     0.0374525  
H80      H      0.154380000000     0.452280000000     0.502950000000     0.0386342  
H81      H      0.286730000000     0.216420000000     0.657040000000     0.0354999  
H82      H      0.216150000000     0.286450000000     0.657040000000     0.0354853  
H83      H      0.216680000000     0.286980000000     0.600260000000     0.0354436  
H84      H      0.286200000000     0.215890000000     0.600260000000     0.0354554  
H85      H      0.286970000000     0.286220000000     0.850260000000     0.03587    
H86      H      0.215910000000     0.216650000000     0.850260000000     0.0358096  
H87      H      0.216440000000     0.216130000000     0.907040000000     0.0371263  
H88      H      0.286440000000     0.286740000000     0.907040000000     0.037182   
H89      H      0.286440000000     0.036740000000     0.600240000000     0.0352059  
H90      H      0.216440000000     0.466130000000     0.600240000000     0.035425   
H91      H      0.215910000000     0.466650000000     0.657030000000     0.0354203  
H92      H      0.286970000000     0.036210000000     0.657030000000     0.0346466  
H93      H      0.286200000000     0.465890000000     0.907030000000     0.0371981  
H94      H      0.216680000000     0.036980000000     0.907030000000     0.0368794  
H95      H      0.216150000000     0.036450000000     0.850240000000     0.0350107  
H96      H      0.286730000000     0.466420000000     0.850240000000     0.0359134  
H97      H      0.301220000000     0.404460000000     0.752300000000     0.0388942  
H98      H      0.201660000000     0.404460000000     0.754980000000     0.0387944  
H99      H      0.201660000000     0.348410000000     0.754990000000     0.0388851  
H100     H      0.301220000000     0.348410000000     0.752300000000     0.038823   
H101     H      0.201660000000     0.098410000000     0.752300000000     0.0386449  
H102     H      0.301220000000     0.098410000000     0.754980000000     0.0386814  
H103     H      0.301220000000     0.154460000000     0.754990000000     0.0388689  
H104     H      0.201660000000     0.154460000000     0.752300000000     0.0386941  
H105     H      0.037000000000     0.216690000000     0.657030000000     0.0351264  
H106     H      0.465890000000     0.286180000000     0.657030000000     0.0354644  
H107     H      0.466430000000     0.286730000000     0.600230000000     0.0353924  
H108     H      0.036460000000     0.216140000000     0.600230000000     0.0344965  
H109     H      0.036450000000     0.216140000000     0.907030000000     0.0361356  
H110     H      0.466430000000     0.286730000000     0.907030000000     0.0370074  
H111     H      0.465890000000     0.286180000000     0.850230000000     0.0356967  
H112     H      0.036990000000     0.216680000000     0.850230000000     0.0353853  
H113     H      0.037010000000     0.466700000000     0.657030000000     0.0350157  
H114     H      0.465870000000     0.036160000000     0.657030000000     0.0344808  
H115     H      0.466410000000     0.036710000000     0.600230000000     0.0350017  
H116     H      0.036470000000     0.466160000000     0.600230000000     0.0343814  
H117     H      0.036970000000     0.466660000000     0.850240000000     0.0355484  
H118     H      0.465910000000     0.036200000000     0.850240000000     0.0350048  
H119     H      0.466450000000     0.036750000000     0.907030000000     0.0368722  
H120     H      0.036430000000     0.466120000000     0.907030000000     0.0363015  
H121     H      0.051160000000     0.404560000000     0.753630000000     0.0385149  
H122     H      0.451570000000     0.404360000000     0.753640000000     0.0389348  
H123     H      0.451720000000     0.348310000000     0.753640000000     0.0387543  
H124     H      0.051320000000     0.348510000000     0.753630000000     0.0386434  
H125     H      0.051320000000     0.098510000000     0.753640000000     0.0384075  
H126     H      0.451720000000     0.098310000000     0.753630000000     0.0386285  
H127     H      0.451570000000     0.154360000000     0.753630000000     0.0388635  
H128     H      0.051160000000     0.154560000000     0.753640000000     0.0384334  
H129     H      0.348500000000     0.800590000000     0.504330000000     0.0388619  
H130     H      0.348320000000     0.701000000000     0.002980000000     0.0378148  
H131     H      0.404460000000     0.700930000000     0.002980000000     0.037822   
H132     H      0.404470000000     0.800510000000     0.504320000000     0.0388203  
H133     H      0.098410000000     0.702360000000     0.504320000000     0.0384751  
H134     H      0.098420000000     0.801940000000     0.002980000000     0.0377591  
H135     H      0.154570000000     0.801870000000     0.002980000000     0.0378811  
H136     H      0.154380000000     0.702280000000     0.504330000000     0.0386168  
H137     H      0.404460000000     0.950930000000     0.504300000000     0.0382881  
H138     H      0.404470000000     0.550510000000     0.002950000000     0.0377658  
H139     H      0.348500000000     0.550590000000     0.002950000000     0.0378154  
H140     H      0.348320000000     0.951000000000     0.504300000000     0.0381887  
H141     H      0.098410000000     0.952360000000     0.002950000000     0.0370658  
H142     H      0.098420000000     0.551940000000     0.504300000000     0.0385324  
H143     H      0.154570000000     0.551870000000     0.504300000000     0.038569   
H144     H      0.154380000000     0.952280000000     0.002950000000     0.0372181  
H145     H      0.286730000000     0.716420000000     0.157040000000     0.0355164  
H146     H      0.216150000000     0.786450000000     0.157040000000     0.0356223  
H147     H      0.216680000000     0.786980000000     0.100260000000     0.0355597  
H148     H      0.286200000000     0.715890000000     0.100260000000     0.0354823  
H149     H      0.286970000000     0.786210000000     0.350260000000     0.0356103  
H150     H      0.215910000000     0.716650000000     0.350260000000     0.0354321  
H151     H      0.216440000000     0.716130000000     0.407040000000     0.0354317  
H152     H      0.286440000000     0.786740000000     0.407040000000     0.0355841  
H153     H      0.286440000000     0.536740000000     0.100240000000     0.0354617  
H154     H      0.216440000000     0.966130000000     0.100240000000     0.0356035  
H155     H      0.215910000000     0.966650000000     0.157030000000     0.0354178  
H156     H      0.286970000000     0.536210000000     0.157030000000     0.0354552  
H157     H      0.286200000000     0.965890000000     0.407030000000     0.0357124  
H158     H      0.216680000000     0.536980000000     0.407030000000     0.0354463  
H159     H      0.216150000000     0.536450000000     0.350240000000     0.0354703  
H160     H      0.286730000000     0.966420000000     0.350240000000     0.0355404  
H161     H      0.301220000000     0.904460000000     0.252300000000     0.0397855  
H162     H      0.201660000000     0.904460000000     0.254980000000     0.0396016  
H163     H      0.201660000000     0.848410000000     0.254990000000     0.0389006  
H164     H      0.301220000000     0.848410000000     0.252300000000     0.0388959  
H165     H      0.201660000000     0.598400000000     0.252300000000     0.0387238  
H166     H      0.301220000000     0.598400000000     0.254980000000     0.0386886  
H167     H      0.301220000000     0.654460000000     0.254990000000     0.0387732  
H168     H      0.201660000000     0.654460000000     0.252300000000     0.038647   
H169     H      0.037000000000     0.716690000000     0.157030000000     0.0351854  
H170     H      0.465890000000     0.786180000000     0.157030000000     0.0356145  
H171     H      0.466430000000     0.786730000000     0.100230000000     0.035538   
H172     H      0.036460000000     0.716140000000     0.100230000000     0.0345061  
H173     H      0.036450000000     0.716140000000     0.407030000000     0.0344074  
H174     H      0.466430000000     0.786730000000     0.407030000000     0.0354038  
H175     H      0.465890000000     0.786180000000     0.350230000000     0.0354314  
H176     H      0.036990000000     0.716680000000     0.350230000000     0.0350161  
H177     H      0.037010000000     0.966700000000     0.157030000000     0.0350013  
H178     H      0.465870000000     0.536160000000     0.157030000000     0.0353047  
H179     H      0.466410000000     0.536710000000     0.100240000000     0.0352604  
H180     H      0.036470000000     0.966160000000     0.100240000000     0.0345941  
H181     H      0.036970000000     0.966660000000     0.350240000000     0.035186   
H182     H      0.465910000000     0.536210000000     0.350240000000     0.0354377  
H183     H      0.466450000000     0.536750000000     0.407030000000     0.0354173  
H184     H      0.036430000000     0.966120000000     0.407030000000     0.0347703  
H185     H      0.051160000000     0.904560000000     0.253630000000     0.0392994  
H186     H      0.451570000000     0.904360000000     0.253640000000     0.0398493  
H187     H      0.451720000000     0.848310000000     0.253640000000     0.0388232  
H188     H      0.051320000000     0.848510000000     0.253630000000     0.0386587  
H189     H      0.051320000000     0.598510000000     0.253640000000     0.0384915  
H190     H      0.451720000000     0.598310000000     0.253630000000     0.0386319  
H191     H      0.451570000000     0.654360000000     0.253630000000     0.0387641  
H192     H      0.051160000000     0.654560000000     0.253640000000     0.0383784  
H193     H      0.348500000000     0.800590000000     0.004330000000     0.0379914  
H194     H      0.348320000000     0.701000000000     0.502980000000     0.0386802  
H195     H      0.404460000000     0.700930000000     0.502980000000     0.0386927  
H196     H      0.404470000000     0.800510000000     0.004320000000     0.0379596  
H197     H      0.098410000000     0.702360000000     0.004320000000     0.0376149  
H198     H      0.098420000000     0.801940000000     0.502980000000     0.0386289  
H199     H      0.154570000000     0.801870000000     0.502980000000     0.038746   
H200     H      0.154380000000     0.702280000000     0.004330000000     0.0377464  
H201     H      0.404460000000     0.950930000000     0.004300000000     0.037439   
H202     H      0.404470000000     0.550510000000     0.502950000000     0.038651   
H203     H      0.348500000000     0.550590000000     0.502950000000     0.0386822  
H204     H      0.348320000000     0.951000000000     0.004300000000     0.0373236  
H205     H      0.098410000000     0.952360000000     0.502950000000     0.0379474  
H206     H      0.098420000000     0.551940000000     0.004300000000     0.0376815  
H207     H      0.154570000000     0.551870000000     0.004300000000     0.0377016  
H208     H      0.154380000000     0.952280000000     0.502950000000     0.0380818  
H209     H      0.286730000000     0.716420000000     0.657040000000     0.0355052  
H210     H      0.216150000000     0.786450000000     0.657040000000     0.0356112  
H211     H      0.216680000000     0.786980000000     0.600260000000     0.0355234  
H212     H      0.286200000000     0.715890000000     0.600260000000     0.0354459  
H213     H      0.286970000000     0.786210000000     0.850260000000     0.0359949  
H214     H      0.215910000000     0.716650000000     0.850260000000     0.0358176  
H215     H      0.216440000000     0.716130000000     0.907040000000     0.0371249  
H216     H      0.286440000000     0.786740000000     0.907040000000     0.0372755  
H217     H      0.286440000000     0.536740000000     0.600240000000     0.0354328  
H218     H      0.216440000000     0.966130000000     0.600240000000     0.0355778  
H219     H      0.215910000000     0.966650000000     0.657030000000     0.0354057  
H220     H      0.286970000000     0.536210000000     0.657030000000     0.0354441  
H221     H      0.286200000000     0.965890000000     0.907030000000     0.0374111  
H222     H      0.216680000000     0.536980000000     0.907030000000     0.0371497  
H223     H      0.216150000000     0.536450000000     0.850240000000     0.0358592  
H224     H      0.286730000000     0.966420000000     0.850240000000     0.0359279  
H225     H      0.301220000000     0.904460000000     0.752300000000     0.0398842  
H226     H      0.201660000000     0.904460000000     0.754980000000     0.0397262  
H227     H      0.201660000000     0.848410000000     0.754990000000     0.0390264  
H228     H      0.301220000000     0.848410000000     0.752300000000     0.0389936  
H229     H      0.201660000000     0.598400000000     0.752300000000     0.0388234  
H230     H      0.301220000000     0.598400000000     0.754980000000     0.0388136  
H231     H      0.301220000000     0.654460000000     0.754990000000     0.0388993  
H232     H      0.201660000000     0.654460000000     0.752300000000     0.0387452  
H233     H      0.037000000000     0.716690000000     0.657030000000     0.035173   
H234     H      0.465890000000     0.786180000000     0.657030000000     0.0356018  
H235     H      0.466430000000     0.786730000000     0.600230000000     0.0355027  
H236     H      0.036460000000     0.716140000000     0.600230000000     0.0344715  
H237     H      0.036450000000     0.716140000000     0.907030000000     0.0361171  
H238     H      0.466430000000     0.786730000000     0.907030000000     0.0371094  
H239     H      0.465890000000     0.786180000000     0.850230000000     0.0358177  
H240     H      0.036990000000     0.716680000000     0.850230000000     0.035404   
H241     H      0.037010000000     0.966700000000     0.657030000000     0.0349873  
H242     H      0.465870000000     0.536160000000     0.657030000000     0.0352912  
H243     H      0.466410000000     0.536710000000     0.600230000000     0.0352234  
H244     H      0.036470000000     0.966160000000     0.600230000000     0.0345595  
H245     H      0.036970000000     0.966660000000     0.850240000000     0.0355746  
H246     H      0.465910000000     0.536210000000     0.850240000000     0.0358246  
H247     H      0.466450000000     0.536750000000     0.907030000000     0.0371414  
H248     H      0.036430000000     0.966120000000     0.907030000000     0.0364936  
H249     H      0.051160000000     0.904560000000     0.753630000000     0.0394107  
H250     H      0.451570000000     0.904360000000     0.753640000000     0.0399604  
H251     H      0.451720000000     0.848310000000     0.753640000000     0.0389287  
H252     H      0.051320000000     0.848510000000     0.753630000000     0.0387768  
H253     H      0.051320000000     0.598510000000     0.753640000000     0.0386044  
H254     H      0.451720000000     0.598310000000     0.753630000000     0.0387435  
H255     H      0.451570000000     0.654360000000     0.753630000000     0.0388817  
H256     H      0.051160000000     0.654560000000     0.753640000000     0.0384848  
H257     H      0.848500000000     0.300590000000     0.504330000000     0.0388828  
H258     H      0.848320000000     0.201000000000     0.002980000000     0.0379663  
H259     H      0.904460000000     0.200930000000     0.002980000000     0.0388393  
H260     H      0.904470000000     0.300510000000     0.504320000000     0.039577   
H261     H      0.598410000000     0.202360000000     0.504320000000     0.038607   
H262     H      0.598420000000     0.301940000000     0.002980000000     0.0378234  
H263     H      0.654570000000     0.301870000000     0.002980000000     0.0378064  
H264     H      0.654380000000     0.202280000000     0.504330000000     0.0386485  
H265     H      0.904460000000     0.450920000000     0.504300000000     0.0397089  
H266     H      0.904470000000     0.050510000000     0.002950000000     0.0385021  
H267     H      0.848500000000     0.050590000000     0.002950000000     0.0377552  
H268     H      0.848320000000     0.451000000000     0.504300000000     0.0388451  
H269     H      0.598410000000     0.452360000000     0.002950000000     0.0377929  
H270     H      0.598420000000     0.051940000000     0.504300000000     0.0384329  
H271     H      0.654570000000     0.051870000000     0.504300000000     0.0383572  
H272     H      0.654380000000     0.452280000000     0.002950000000     0.0378026  
H273     H      0.786730000000     0.216420000000     0.157040000000     0.0356164  
H274     H      0.716150000000     0.286450000000     0.157040000000     0.0354992  
H275     H      0.716680000000     0.286980000000     0.100260000000     0.0354902  
H276     H      0.786200000000     0.215890000000     0.100260000000     0.0356013  
H277     H      0.786970000000     0.286220000000     0.350260000000     0.0355813  
H278     H      0.715910000000     0.216650000000     0.350260000000     0.0354228  
H279     H      0.716440000000     0.216130000000     0.407040000000     0.0354373  
H280     H      0.786440000000     0.286740000000     0.407040000000     0.0355986  
H281     H      0.786440000000     0.036740000000     0.100240000000     0.0353436  
H282     H      0.716440000000     0.466130000000     0.100240000000     0.0354579  
H283     H      0.715910000000     0.466650000000     0.157030000000     0.0354298  
H284     H      0.786970000000     0.036210000000     0.157030000000     0.0347559  
H285     H      0.786200000000     0.465890000000     0.407030000000     0.0356045  
H286     H      0.716680000000     0.036980000000     0.407030000000     0.0351882  
H287     H      0.716150000000     0.036450000000     0.350240000000     0.0346239  
H288     H      0.786730000000     0.466420000000     0.350240000000     0.0356304  
H289     H      0.801220000000     0.404460000000     0.252300000000     0.0389062  
H290     H      0.701660000000     0.404460000000     0.254980000000     0.0386596  
H291     H      0.701660000000     0.348410000000     0.254990000000     0.0387533  
H292     H      0.801220000000     0.348410000000     0.252300000000     0.0388275  
H293     H      0.701660000000     0.098410000000     0.252300000000     0.0385393  
H294     H      0.801220000000     0.098410000000     0.254980000000     0.0386592  
H295     H      0.801220000000     0.154460000000     0.254990000000     0.0388544  
H296     H      0.701660000000     0.154460000000     0.252300000000     0.0385867  
H297     H      0.537000000000     0.216690000000     0.157030000000     0.0354039  
H298     H      0.965890000000     0.286180000000     0.157030000000     0.0356771  
H299     H      0.966430000000     0.286730000000     0.100230000000     0.0354584  
H300     H      0.536460000000     0.216140000000     0.100230000000     0.0353695  
H301     H      0.536450000000     0.216140000000     0.407030000000     0.0352689  
H302     H      0.966430000000     0.286730000000     0.407030000000     0.0353202  
H303     H      0.965890000000     0.286180000000     0.350230000000     0.0355307  
H304     H      0.536990000000     0.216680000000     0.350230000000     0.0352575  
H305     H      0.537010000000     0.466700000000     0.157030000000     0.0352995  
H306     H      0.965870000000     0.036160000000     0.157030000000     0.0346696  
H307     H      0.966410000000     0.036710000000     0.100240000000     0.03507    
H308     H      0.536470000000     0.466160000000     0.100240000000     0.0352514  
H309     H      0.536970000000     0.466660000000     0.350240000000     0.0354274  
H310     H      0.965910000000     0.036200000000     0.350240000000     0.0348145  
H311     H      0.966450000000     0.036750000000     0.407030000000     0.0351814  
H312     H      0.536430000000     0.466120000000     0.407030000000     0.0354126  
H313     H      0.551160000000     0.404560000000     0.253630000000     0.0386215  
H314     H      0.951570000000     0.404360000000     0.253640000000     0.0383459  
H315     H      0.951720000000     0.348310000000     0.253640000000     0.038078   
H316     H      0.551320000000     0.348510000000     0.253630000000     0.038777   
H317     H      0.551320000000     0.098510000000     0.253640000000     0.0385515  
H318     H      0.951720000000     0.098310000000     0.253630000000     0.0379336  
H319     H      0.951570000000     0.154360000000     0.253630000000     0.0383024  
H320     H      0.551160000000     0.154560000000     0.253640000000     0.0385388  
H321     H      0.848500000000     0.300590000000     0.004330000000     0.0380141  
H322     H      0.848320000000     0.201000000000     0.502980000000     0.0388289  
H323     H      0.904460000000     0.200930000000     0.502980000000     0.0397061  
H324     H      0.904470000000     0.300510000000     0.004320000000     0.038719   
H325     H      0.598410000000     0.202360000000     0.004320000000     0.0377476  
H326     H      0.598420000000     0.301940000000     0.502980000000     0.0386938  
H327     H      0.654570000000     0.301870000000     0.502980000000     0.0386709  
H328     H      0.654380000000     0.202280000000     0.004330000000     0.0377798  
H329     H      0.904460000000     0.450920000000     0.004300000000     0.0388601  
H330     H      0.904470000000     0.050510000000     0.502950000000     0.0393817  
H331     H      0.848500000000     0.050590000000     0.502950000000     0.0386175  
H332     H      0.848320000000     0.451000000000     0.004300000000     0.0379792  
H333     H      0.598410000000     0.452360000000     0.502950000000     0.0386776  
H334     H      0.598420000000     0.051940000000     0.004300000000     0.0375841  
H335     H      0.654570000000     0.051870000000     0.004300000000     0.0374928  
H336     H      0.654380000000     0.452280000000     0.502950000000     0.0386683  
H337     H      0.786730000000     0.216420000000     0.657040000000     0.0356051  
H338     H      0.716150000000     0.286450000000     0.657040000000     0.0354881  
H339     H      0.716680000000     0.286980000000     0.600260000000     0.035454   
H340     H      0.786200000000     0.215890000000     0.600260000000     0.0355648  
H341     H      0.786970000000     0.286220000000     0.850260000000     0.0359649  
H342     H      0.715910000000     0.216650000000     0.850260000000     0.0358074  
H343     H      0.716440000000     0.216130000000     0.907040000000     0.037127   
H344     H      0.786440000000     0.286740000000     0.907040000000     0.0372859  
H345     H      0.786440000000     0.036740000000     0.600240000000     0.0353156  
H346     H      0.716440000000     0.466130000000     0.600240000000     0.0354291  
H347     H      0.715910000000     0.466650000000     0.657030000000     0.0354187  
H348     H      0.786970000000     0.036210000000     0.657030000000     0.0347433  
H349     H      0.786200000000     0.465890000000     0.907030000000     0.0373017  
H350     H      0.716680000000     0.036980000000     0.907030000000     0.0368858  
H351     H      0.716150000000     0.036450000000     0.850240000000     0.0350124  
H352     H      0.786730000000     0.466420000000     0.850240000000     0.0360169  
H353     H      0.801220000000     0.404460000000     0.752300000000     0.0390051  
H354     H      0.701660000000     0.404460000000     0.754980000000     0.0387851  
H355     H      0.701660000000     0.348410000000     0.754990000000     0.0388792  
H356     H      0.801220000000     0.348410000000     0.752300000000     0.0389248  
H357     H      0.701660000000     0.098410000000     0.752300000000     0.0386386  
H358     H      0.801220000000     0.098410000000     0.754980000000     0.0387832  
H359     H      0.801220000000     0.154460000000     0.754990000000     0.0389796  
H360     H      0.701660000000     0.154460000000     0.752300000000     0.0386847  
H361     H      0.537000000000     0.216690000000     0.657030000000     0.0353912  
H362     H      0.965890000000     0.286180000000     0.657030000000     0.0356638  
H363     H      0.966430000000     0.286730000000     0.600230000000     0.0354227  
H364     H      0.536460000000     0.216140000000     0.600230000000     0.0353341  
H365     H      0.536450000000     0.216140000000     0.907030000000     0.0369752  
H366     H      0.966430000000     0.286730000000     0.907030000000     0.0370184  
H367     H      0.965890000000     0.286180000000     0.850230000000     0.0359146  
H368     H      0.536990000000     0.216680000000     0.850230000000     0.035644   
H369     H      0.537010000000     0.466700000000     0.657030000000     0.035286   
H370     H      0.965870000000     0.036160000000     0.657030000000     0.0346547  
H371     H      0.966410000000     0.036710000000     0.600230000000     0.0350341  
H372     H      0.536470000000     0.466160000000     0.600230000000     0.0352143  
H373     H      0.536970000000     0.466660000000     0.850240000000     0.035814   
H374     H      0.965910000000     0.036200000000     0.850240000000     0.0352009  
H375     H      0.966450000000     0.036750000000     0.907030000000     0.0368964  
H376     H      0.536430000000     0.466120000000     0.907030000000     0.0371362  
H377     H      0.551160000000     0.404560000000     0.753630000000     0.0387331  
H378     H      0.951570000000     0.404360000000     0.753640000000     0.0384589  
H379     H      0.951720000000     0.348310000000     0.753640000000     0.0381851  
H380     H      0.551320000000     0.348510000000     0.753630000000     0.0388946  
H381     H      0.551320000000     0.098510000000     0.753640000000     0.0386634  
H382     H      0.951720000000     0.098310000000     0.753630000000     0.0380463  
H383     H      0.951570000000     0.154360000000     0.753630000000     0.0384209  
H384     H      0.551160000000     0.154560000000     0.753640000000     0.0386446  
H385     H      0.848500000000     0.800590000000     0.504330000000     0.039014   
H386     H      0.848320000000     0.701000000000     0.002980000000     0.0379779  
H387     H      0.904460000000     0.700930000000     0.002980000000     0.0388158  
H388     H      0.904470000000     0.800510000000     0.504320000000     0.0397424  
H389     H      0.598410000000     0.702360000000     0.504320000000     0.0386113  
H390     H      0.598420000000     0.801940000000     0.002980000000     0.0379359  
H391     H      0.654570000000     0.801870000000     0.002980000000     0.0379221  
H392     H      0.654380000000     0.702280000000     0.504330000000     0.0386508  
H393     H      0.904460000000     0.950930000000     0.504300000000     0.0392779  
H394     H      0.904470000000     0.550510000000     0.002950000000     0.0386909  
H395     H      0.848500000000     0.550590000000     0.002950000000     0.0379697  
H396     H      0.848320000000     0.951000000000     0.504300000000     0.0383505  
H397     H      0.598410000000     0.952360000000     0.002950000000     0.0372004  
H398     H      0.598420000000     0.551940000000     0.504300000000     0.038708   
H399     H      0.654570000000     0.551870000000     0.504300000000     0.0386093  
H400     H      0.654380000000     0.952280000000     0.002950000000     0.0372524  
H401     H      0.786730000000     0.716420000000     0.157040000000     0.0356218  
H402     H      0.716150000000     0.786450000000     0.157040000000     0.035625   
H403     H      0.716680000000     0.786980000000     0.100260000000     0.03557    
H404     H      0.786200000000     0.715890000000     0.100260000000     0.0355918  
H405     H      0.786970000000     0.786210000000     0.350260000000     0.0357068  
H406     H      0.715910000000     0.716650000000     0.350260000000     0.0354307  
H407     H      0.716440000000     0.716130000000     0.407040000000     0.035436   
H408     H      0.786440000000     0.786740000000     0.407040000000     0.0356938  
H409     H      0.786440000000     0.536740000000     0.100240000000     0.0355714  
H410     H      0.716440000000     0.966130000000     0.100240000000     0.0356079  
H411     H      0.715910000000     0.966650000000     0.157030000000     0.0354167  
H412     H      0.786970000000     0.536210000000     0.157030000000     0.0355519  
H413     H      0.786200000000     0.965890000000     0.407030000000     0.0358208  
H414     H      0.716680000000     0.536980000000     0.407030000000     0.0354567  
H415     H      0.716150000000     0.536450000000     0.350240000000     0.035473   
H416     H      0.786730000000     0.966420000000     0.350240000000     0.0356442  
H417     H      0.801220000000     0.904460000000     0.252300000000     0.0398953  
H418     H      0.701660000000     0.904460000000     0.254980000000     0.0395926  
H419     H      0.701660000000     0.848410000000     0.254990000000     0.038895   
H420     H      0.801220000000     0.848410000000     0.252300000000     0.038998   
H421     H      0.701660000000     0.598400000000     0.252300000000     0.038718   
H422     H      0.801220000000     0.598400000000     0.254980000000     0.0387913  
H423     H      0.801220000000     0.654460000000     0.254990000000     0.0388848  
H424     H      0.701660000000     0.654460000000     0.252300000000     0.0386379  
H425     H      0.537000000000     0.716690000000     0.157030000000     0.0354501  
H426     H      0.965890000000     0.786180000000     0.157030000000     0.0358133  
H427     H      0.966430000000     0.786730000000     0.100230000000     0.0355669  
H428     H      0.536460000000     0.716140000000     0.100230000000     0.0353453  
H429     H      0.536450000000     0.716140000000     0.407030000000     0.0352512  
H430     H      0.966430000000     0.786730000000     0.407030000000     0.0354226  
H431     H      0.965890000000     0.786180000000     0.350230000000     0.0356513  
H432     H      0.536990000000     0.716680000000     0.350230000000     0.0352762  
H433     H      0.537010000000     0.966700000000     0.157030000000     0.0352708  
H434     H      0.965870000000     0.536160000000     0.157030000000     0.0354776  
H435     H      0.966410000000     0.536710000000     0.100240000000     0.0352893  
H436     H      0.536470000000     0.966160000000     0.100240000000     0.0354257  
H437     H      0.536970000000     0.966660000000     0.350240000000     0.0354522  
H438     H      0.965910000000     0.536210000000     0.350240000000     0.0356346  
H439     H      0.966450000000     0.536750000000     0.407030000000     0.0354463  
H440     H      0.536430000000     0.966120000000     0.407030000000     0.0356076  
H441     H      0.551160000000     0.904560000000     0.253630000000     0.039519   
H442     H      0.951570000000     0.904360000000     0.253640000000     0.0393709  
H443     H      0.951720000000     0.848310000000     0.253640000000     0.0382529  
H444     H      0.551320000000     0.848510000000     0.253630000000     0.0389104  
H445     H      0.551320000000     0.598510000000     0.253640000000     0.0387488  
H446     H      0.951720000000     0.598310000000     0.253630000000     0.0380476  
H447     H      0.951570000000     0.654360000000     0.253630000000     0.0383205  
H448     H      0.551160000000     0.654560000000     0.253640000000     0.0385908  
H449     H      0.848500000000     0.800590000000     0.004330000000     0.0381454  
H450     H      0.848320000000     0.701000000000     0.502980000000     0.0388416  
H451     H      0.904460000000     0.700930000000     0.502980000000     0.0396838  
H452     H      0.904470000000     0.800510000000     0.004320000000     0.0388847  
H453     H      0.598410000000     0.702360000000     0.004320000000     0.0377507  
H454     H      0.598420000000     0.801940000000     0.502980000000     0.0388062  
H455     H      0.654570000000     0.801870000000     0.502980000000     0.0387866  
H456     H      0.654380000000     0.702280000000     0.004330000000     0.0377809  
H457     H      0.904460000000     0.950930000000     0.004300000000     0.0384316  
H458     H      0.904470000000     0.550510000000     0.502950000000     0.0395731  
H459     H      0.848500000000     0.550590000000     0.502950000000     0.0388347  
H460     H      0.848320000000     0.951000000000     0.004300000000     0.0374871  
H461     H      0.598410000000     0.952360000000     0.502950000000     0.0380825  
H462     H      0.598420000000     0.551940000000     0.004300000000     0.0378567  
H463     H      0.654570000000     0.551870000000     0.004300000000     0.0377423  
H464     H      0.654380000000     0.952280000000     0.502950000000     0.0381156  
H465     H      0.786730000000     0.716420000000     0.657040000000     0.0356104  
H466     H      0.716150000000     0.786450000000     0.657040000000     0.0356139  
H467     H      0.716680000000     0.786980000000     0.600260000000     0.0355338  
H468     H      0.786200000000     0.715890000000     0.600260000000     0.0355553  
H469     H      0.786970000000     0.786210000000     0.850260000000     0.0360895  
H470     H      0.715910000000     0.716650000000     0.850260000000     0.0358155  
H471     H      0.716440000000     0.716130000000     0.907040000000     0.0371257  
H472     H      0.786440000000     0.786740000000     0.907040000000     0.0373791  
H473     H      0.786440000000     0.536740000000     0.600240000000     0.0355425  
H474     H      0.716440000000     0.966130000000     0.600240000000     0.0355822  
H475     H      0.715910000000     0.966650000000     0.657030000000     0.0354045  
H476     H      0.786970000000     0.536210000000     0.657030000000     0.0355406  
H477     H      0.786200000000     0.965890000000     0.907030000000     0.0375134  
H478     H      0.716680000000     0.536980000000     0.907030000000     0.0371566  
H479     H      0.716150000000     0.536450000000     0.850240000000     0.0358611  
H480     H      0.786730000000     0.966420000000     0.850240000000     0.0360298  
H481     H      0.801220000000     0.904460000000     0.752300000000     0.0399933  
H482     H      0.701660000000     0.904460000000     0.754980000000     0.0397169  
H483     H      0.701660000000     0.848410000000     0.754990000000     0.0390206  
H484     H      0.801220000000     0.848410000000     0.752300000000     0.039095   
H485     H      0.701660000000     0.598400000000     0.752300000000     0.0388175  
H486     H      0.801220000000     0.598400000000     0.754980000000     0.0389154  
H487     H      0.801220000000     0.654460000000     0.754990000000     0.0390101  
H488     H      0.701660000000     0.654460000000     0.752300000000     0.0387359  
H489     H      0.537000000000     0.716690000000     0.657030000000     0.0354373  
H490     H      0.965890000000     0.786180000000     0.657030000000     0.0358001  
H491     H      0.966430000000     0.786730000000     0.600230000000     0.0355312  
H492     H      0.536460000000     0.716140000000     0.600230000000     0.0353099  
H493     H      0.536450000000     0.716140000000     0.907030000000     0.0369573  
H494     H      0.966430000000     0.786730000000     0.907030000000     0.0371187  
H495     H      0.965890000000     0.786180000000     0.850230000000     0.0360345  
H496     H      0.536990000000     0.716680000000     0.850230000000     0.0356628  
H497     H      0.537010000000     0.966700000000     0.657030000000     0.0352566  
H498     H      0.965870000000     0.536160000000     0.657030000000     0.0354633  
H499     H      0.966410000000     0.536710000000     0.600230000000     0.0352538  
H500     H      0.536470000000     0.966160000000     0.600230000000     0.0353898  
H501     H      0.536970000000     0.966660000000     0.850240000000     0.0358388  
H502     H      0.965910000000     0.536210000000     0.850240000000     0.0360195  
H503     H      0.966450000000     0.536750000000     0.907030000000     0.037164   
H504     H      0.536430000000     0.966120000000     0.907030000000     0.037326   
H505     H      0.551160000000     0.904560000000     0.753630000000     0.0396297  
H506     H      0.951570000000     0.904360000000     0.753640000000     0.0394829  
H507     H      0.951720000000     0.848310000000     0.753640000000     0.0383598  
H508     H      0.551320000000     0.848510000000     0.753630000000     0.0390276  
H509     H      0.551320000000     0.598510000000     0.753640000000     0.0388608  
H510     H      0.951720000000     0.598310000000     0.753630000000     0.0381605  
H511     H      0.951570000000     0.654360000000     0.753630000000     0.038439   
H512     H      0.551160000000     0.654560000000     0.753640000000     0.0386966  
O1       O      0.475650000000     0.001850000000     0.297560000000    -0.543528   
O2       O      0.475650000000     0.501850000000     0.209710000000    -0.542335   
O3       O      0.475590000000     0.457820000000     0.253640000000    -0.542197   
O4       O      0.475780000000     0.045280000000     0.253630000000    -0.543578   
O5       O      0.027290000000     0.045040000000     0.253640000000    -0.538929   
O6       O      0.027100000000     0.457590000000     0.253630000000    -0.542762   
O7       O      0.027230000000     0.001020000000     0.209710000000    -0.541737   
O8       O      0.027230000000     0.501020000000     0.297560000000    -0.540357   
O9       O      0.027230000000     0.251020000000     0.297560000000    -0.540173   
O10      O      0.027230000000     0.251020000000     0.209710000000    -0.540328   
O11      O      0.027290000000     0.295040000000     0.253630000000    -0.540206   
O12      O      0.027100000000     0.207590000000     0.253630000000    -0.542774   
O13      O      0.475590000000     0.207820000000     0.253630000000    -0.542183   
O14      O      0.475780000000     0.295280000000     0.253630000000    -0.544973   
O15      O      0.475650000000     0.251840000000     0.209710000000    -0.54253    
O16      O      0.475650000000     0.251840000000     0.297560000000    -0.542384   
O17      O      0.277210000000     0.500430000000     0.297550000000    -0.542544   
O18      O      0.277210000000     0.002440000000     0.209730000000    -0.543421   
O19      O      0.277180000000     0.045160000000     0.254440000000    -0.542066   
O20      O      0.277180000000     0.457710000000     0.252840000000    -0.543518   
O21      O      0.225700000000     0.457710000000     0.254440000000    -0.543438   
O22      O      0.225700000000     0.045160000000     0.252840000000    -0.542019   
O23      O      0.225670000000     0.500430000000     0.209730000000    -0.542539   
O24      O      0.225670000000     0.002440000000     0.297550000000    -0.543471   
O25      O      0.225670000000     0.250430000000     0.297560000000    -0.542553   
O26      O      0.225670000000     0.252440000000     0.209740000000    -0.542486   
O27      O      0.225700000000     0.207710000000     0.252840000000    -0.543617   
O28      O      0.225700000000     0.295160000000     0.254450000000    -0.543327   
O29      O      0.277180000000     0.295160000000     0.252840000000    -0.543387   
O30      O      0.277180000000     0.207710000000     0.254450000000    -0.543548   
O31      O      0.277210000000     0.250430000000     0.209740000000    -0.542481   
O32      O      0.277210000000     0.252440000000     0.297560000000    -0.542545   
O33      O      0.500870000000     0.027220000000     0.459710000000    -0.540354   
O34      O      0.000850000000     0.027220000000     0.047560000000    -0.540003   
O35      O      0.044890000000     0.027640000000     0.503650000000    -0.538613   
O36      O      0.457430000000     0.026730000000     0.003620000000    -0.543088   
O37      O      0.457990000000     0.475230000000     0.503650000000    -0.542125   
O38      O      0.045450000000     0.476130000000     0.003620000000    -0.543863   
O39      O      0.502040000000     0.475650000000     0.047560000000    -0.540787   
O40      O      0.002010000000     0.475650000000     0.459710000000    -0.543725   
O41      O      0.002040000000     0.225650000000     0.459710000000    -0.543732   
O42      O      0.502010000000     0.225650000000     0.047560000000    -0.540839   
O43      O      0.457990000000     0.225230000000     0.503620000000    -0.542175   
O44      O      0.045450000000     0.226140000000     0.003650000000    -0.544087   
O45      O      0.044890000000     0.277640000000     0.503620000000    -0.540834   
O46      O      0.457430000000     0.276730000000     0.003650000000    -0.545401   
O47      O      0.000870000000     0.277220000000     0.047560000000    -0.542269   
O48      O      0.500850000000     0.277220000000     0.459710000000    -0.542596   
O49      O      0.250620000000     0.027210000000     0.459720000000    -0.540407   
O50      O      0.252600000000     0.027200000000     0.047540000000    -0.538541   
O51      O      0.295320000000     0.026820000000     0.502850000000    -0.541653   
O52      O      0.207880000000     0.027540000000     0.004420000000    -0.540937   
O53      O      0.207560000000     0.476050000000     0.502850000000    -0.543709   
O54      O      0.295000000000     0.475330000000     0.004420000000    -0.543267   
O55      O      0.250280000000     0.475670000000     0.047540000000    -0.540877   
O56      O      0.252270000000     0.475660000000     0.459720000000    -0.54277    
O57      O      0.252600000000     0.277200000000     0.459740000000    -0.542476   
O58      O      0.250620000000     0.277210000000     0.047560000000    -0.540796   
O59      O      0.295320000000     0.276820000000     0.504440000000    -0.543839   
O60      O      0.207880000000     0.277540000000     0.002870000000    -0.543172   
O61      O      0.207560000000     0.226050000000     0.504440000000    -0.543707   
O62      O      0.295000000000     0.225330000000     0.002870000000    -0.543338   
O63      O      0.252270000000     0.225660000000     0.047560000000    -0.540922   
O64      O      0.250280000000     0.225670000000     0.459740000000    -0.542592   
O65      O      0.475650000000     0.001850000000     0.797560000000    -0.543337   
O66      O      0.475650000000     0.501850000000     0.709710000000    -0.542399   
O67      O      0.475590000000     0.457820000000     0.753640000000    -0.542133   
O68      O      0.475780000000     0.045280000000     0.753640000000    -0.543524   
O69      O      0.027290000000     0.045040000000     0.753640000000    -0.538871   
O70      O      0.027100000000     0.457590000000     0.753640000000    -0.542715   
O71      O      0.027230000000     0.001020000000     0.709710000000    -0.541808   
O72      O      0.027230000000     0.501020000000     0.797560000000    -0.540173   
O73      O      0.027230000000     0.251020000000     0.797560000000    -0.539984   
O74      O      0.027230000000     0.251020000000     0.709710000000    -0.540377   
O75      O      0.027290000000     0.295040000000     0.753630000000    -0.540145   
O76      O      0.027100000000     0.207590000000     0.753630000000    -0.542729   
O77      O      0.475590000000     0.207820000000     0.753630000000    -0.542116   
O78      O      0.475780000000     0.295280000000     0.753630000000    -0.544921   
O79      O      0.475650000000     0.251840000000     0.709710000000    -0.542573   
O80      O      0.475650000000     0.251840000000     0.797560000000    -0.542189   
O81      O      0.277210000000     0.500430000000     0.797550000000    -0.542349   
O82      O      0.277210000000     0.002440000000     0.709730000000    -0.543466   
O83      O      0.277180000000     0.045160000000     0.754440000000    -0.541995   
O84      O      0.277180000000     0.457710000000     0.752840000000    -0.543469   
O85      O      0.225700000000     0.457710000000     0.754440000000    -0.543367   
O86      O      0.225700000000     0.045160000000     0.752840000000    -0.54197    
O87      O      0.225670000000     0.500430000000     0.709730000000    -0.542583   
O88      O      0.225670000000     0.002440000000     0.797550000000    -0.543275   
O89      O      0.225670000000     0.250430000000     0.797560000000    -0.54236    
O90      O      0.225670000000     0.252440000000     0.709740000000    -0.542529   
O91      O      0.225700000000     0.207710000000     0.752840000000    -0.543569   
O92      O      0.225700000000     0.295160000000     0.754450000000    -0.543256   
O93      O      0.277180000000     0.295160000000     0.752840000000    -0.543339   
O94      O      0.277180000000     0.207710000000     0.754450000000    -0.543476   
O95      O      0.277210000000     0.250430000000     0.709740000000    -0.542523   
O96      O      0.277210000000     0.252440000000     0.797560000000    -0.542351   
O97      O      0.500870000000     0.027220000000     0.959710000000    -0.532626   
O98      O      0.000850000000     0.027220000000     0.547560000000    -0.541712   
O99      O      0.044890000000     0.027640000000     0.003650000000    -0.538674   
O100     O      0.457430000000     0.026730000000     0.503620000000    -0.543024   
O101     O      0.457990000000     0.475230000000     0.003650000000    -0.542181   
O102     O      0.045450000000     0.476130000000     0.503620000000    -0.543805   
O103     O      0.502040000000     0.475650000000     0.547560000000    -0.542508   
O104     O      0.002010000000     0.475650000000     0.959710000000    -0.535967   
O105     O      0.002040000000     0.225650000000     0.959710000000    -0.535927   
O106     O      0.502010000000     0.225650000000     0.547550000000    -0.54266    
O107     O      0.457990000000     0.225230000000     0.003620000000    -0.54219    
O108     O      0.045450000000     0.226140000000     0.503650000000    -0.544054   
O109     O      0.044890000000     0.277640000000     0.003620000000    -0.540849   
O110     O      0.457430000000     0.276730000000     0.503650000000    -0.545367   
O111     O      0.000870000000     0.277220000000     0.547550000000    -0.544086   
O112     O      0.500850000000     0.277220000000     0.959710000000    -0.534796   
O113     O      0.250620000000     0.027210000000     0.959720000000    -0.532656   
O114     O      0.252600000000     0.027200000000     0.547540000000    -0.54023    
O115     O      0.295320000000     0.026820000000     0.002840000000    -0.541737   
O116     O      0.207880000000     0.027540000000     0.504420000000    -0.540909   
O117     O      0.207560000000     0.476050000000     0.002840000000    -0.543788   
O118     O      0.295000000000     0.475330000000     0.504420000000    -0.543244   
O119     O      0.250280000000     0.475670000000     0.547540000000    -0.542577   
O120     O      0.252270000000     0.475660000000     0.959720000000    -0.534997   
O121     O      0.252600000000     0.277200000000     0.959740000000    -0.534737   
O122     O      0.250620000000     0.277210000000     0.547560000000    -0.542523   
O123     O      0.295320000000     0.276820000000     0.004440000000    -0.543858   
O124     O      0.207880000000     0.277540000000     0.502870000000    -0.543075   
O125     O      0.207560000000     0.226050000000     0.004440000000    -0.543726   
O126     O      0.295000000000     0.225330000000     0.502870000000    -0.543242   
O127     O      0.252270000000     0.225660000000     0.547560000000    -0.542649   
O128     O      0.250280000000     0.225670000000     0.959740000000    -0.534855   
O129     O      0.475650000000     0.501850000000     0.297560000000    -0.542559   
O130     O      0.475650000000     0.001840000000     0.209710000000    -0.543275   
O131     O      0.475590000000     0.957820000000     0.253640000000    -0.535927   
O132     O      0.475780000000     0.545280000000     0.253630000000    -0.544959   
O133     O      0.027290000000     0.545040000000     0.253640000000    -0.540221   
O134     O      0.027100000000     0.957590000000     0.253630000000    -0.536665   
O135     O      0.027230000000     0.501020000000     0.209710000000    -0.540136   
O136     O      0.027230000000     0.001020000000     0.297560000000    -0.541919   
O137     O      0.027230000000     0.751020000000     0.297560000000    -0.540141   
O138     O      0.027230000000     0.751020000000     0.209710000000    -0.540293   
O139     O      0.027290000000     0.795040000000     0.253630000000    -0.540159   
O140     O      0.027100000000     0.707590000000     0.253630000000    -0.542747   
O141     O      0.475590000000     0.707830000000     0.253630000000    -0.542334   
O142     O      0.475780000000     0.795280000000     0.253630000000    -0.544975   
O143     O      0.475650000000     0.751840000000     0.209710000000    -0.542549   
O144     O      0.475650000000     0.751840000000     0.297560000000    -0.542409   
O145     O      0.277210000000     0.000430000000     0.297550000000    -0.544153   
O146     O      0.277210000000     0.502440000000     0.209730000000    -0.542531   
O147     O      0.277180000000     0.545160000000     0.254440000000    -0.543449   
O148     O      0.277180000000     0.957710000000     0.252840000000    -0.537344   
O149     O      0.225700000000     0.957710000000     0.254440000000    -0.537439   
O150     O      0.225700000000     0.545160000000     0.252840000000    -0.543533   
O151     O      0.225670000000     0.000430000000     0.209730000000    -0.544183   
O152     O      0.225670000000     0.502440000000     0.297550000000    -0.542543   
O153     O      0.225670000000     0.750430000000     0.297560000000    -0.542527   
O154     O      0.225670000000     0.752440000000     0.209740000000    -0.542468   
O155     O      0.225700000000     0.707710000000     0.252840000000    -0.543624   
O156     O      0.225700000000     0.795160000000     0.254450000000    -0.543281   
O157     O      0.277180000000     0.795160000000     0.252840000000    -0.543331   
O158     O      0.277180000000     0.707710000000     0.254450000000    -0.543562   
O159     O      0.277210000000     0.750430000000     0.209740000000    -0.54245    
O160     O      0.277210000000     0.752440000000     0.297560000000    -0.542531   
O161     O      0.500870000000     0.527220000000     0.459710000000    -0.542613   
O162     O      0.000850000000     0.527220000000     0.047560000000    -0.542247   
O163     O      0.044890000000     0.527640000000     0.503650000000    -0.540724   
O164     O      0.457430000000     0.526730000000     0.003620000000    -0.545381   
O165     O      0.457990000000     0.975230000000     0.503650000000    -0.53593    
O166     O      0.045450000000     0.976130000000     0.003620000000    -0.537931   
O167     O      0.502040000000     0.975650000000     0.047560000000    -0.534602   
O168     O      0.002010000000     0.975650000000     0.459710000000    -0.537548   
O169     O      0.002040000000     0.725650000000     0.459710000000    -0.543745   
O170     O      0.502010000000     0.725650000000     0.047560000000    -0.540852   
O171     O      0.457990000000     0.725230000000     0.503620000000    -0.542287   
O172     O      0.045450000000     0.726140000000     0.003650000000    -0.54409    
O173     O      0.044890000000     0.777640000000     0.503620000000    -0.54079    
O174     O      0.457430000000     0.776730000000     0.003650000000    -0.545243   
O175     O      0.000870000000     0.777220000000     0.047560000000    -0.542215   
O176     O      0.500850000000     0.777220000000     0.459710000000    -0.54254    
O177     O      0.250620000000     0.527210000000     0.459720000000    -0.542671   
O178     O      0.252600000000     0.527200000000     0.047540000000    -0.540787   
O179     O      0.295320000000     0.526820000000     0.502850000000    -0.543863   
O180     O      0.207880000000     0.527540000000     0.004420000000    -0.543121   
O181     O      0.207560000000     0.976050000000     0.502850000000    -0.537648   
O182     O      0.295000000000     0.975330000000     0.004420000000    -0.537191   
O183     O      0.250280000000     0.975670000000     0.047540000000    -0.53471    
O184     O      0.252270000000     0.975660000000     0.459720000000    -0.536585   
O185     O      0.252600000000     0.777200000000     0.459740000000    -0.542422   
O186     O      0.250620000000     0.777210000000     0.047560000000    -0.540743   
O187     O      0.295320000000     0.776820000000     0.504440000000    -0.543791   
O188     O      0.207880000000     0.777540000000     0.002870000000    -0.543135   
O189     O      0.207560000000     0.726050000000     0.504440000000    -0.543705   
O190     O      0.295000000000     0.725330000000     0.002870000000    -0.543341   
O191     O      0.252270000000     0.725660000000     0.047560000000    -0.540925   
O192     O      0.250280000000     0.725670000000     0.459740000000    -0.542595   
O193     O      0.475650000000     0.501850000000     0.797560000000    -0.542368   
O194     O      0.475650000000     0.001840000000     0.709710000000    -0.543341   
O195     O      0.475590000000     0.957820000000     0.753640000000    -0.535867   
O196     O      0.475780000000     0.545280000000     0.753640000000    -0.544905   
O197     O      0.027290000000     0.545040000000     0.753640000000    -0.540163   
O198     O      0.027100000000     0.957590000000     0.753640000000    -0.536621   
O199     O      0.027230000000     0.501020000000     0.709710000000    -0.540206   
O200     O      0.027230000000     0.001020000000     0.797560000000    -0.541734   
O201     O      0.027230000000     0.751020000000     0.797560000000    -0.539952   
O202     O      0.027230000000     0.751020000000     0.709710000000    -0.540343   
O203     O      0.027290000000     0.795040000000     0.753630000000    -0.540098   
O204     O      0.027100000000     0.707590000000     0.753630000000    -0.542701   
O205     O      0.475590000000     0.707830000000     0.753630000000    -0.542267   
O206     O      0.475780000000     0.795280000000     0.753630000000    -0.544923   
O207     O      0.475650000000     0.751840000000     0.709710000000    -0.542592   
O208     O      0.475650000000     0.751840000000     0.797560000000    -0.542214   
O209     O      0.277210000000     0.000430000000     0.797550000000    -0.543956   
O210     O      0.277210000000     0.502440000000     0.709730000000    -0.542574   
O211     O      0.277180000000     0.545160000000     0.754440000000    -0.543378   
O212     O      0.277180000000     0.957710000000     0.752840000000    -0.537298   
O213     O      0.225700000000     0.957710000000     0.754440000000    -0.537372   
O214     O      0.225700000000     0.545160000000     0.752840000000    -0.543484   
O215     O      0.225670000000     0.000430000000     0.709730000000    -0.544228   
O216     O      0.225670000000     0.502440000000     0.797550000000    -0.542348   
O217     O      0.225670000000     0.750430000000     0.797560000000    -0.542333   
O218     O      0.225670000000     0.752440000000     0.709740000000    -0.542511   
O219     O      0.225700000000     0.707710000000     0.752840000000    -0.543576   
O220     O      0.225700000000     0.795160000000     0.754450000000    -0.543209   
O221     O      0.277180000000     0.795160000000     0.752840000000    -0.543283   
O222     O      0.277180000000     0.707710000000     0.754450000000    -0.54349    
O223     O      0.277210000000     0.750430000000     0.709740000000    -0.542493   
O224     O      0.277210000000     0.752440000000     0.797560000000    -0.542337   
O225     O      0.500870000000     0.527220000000     0.959710000000    -0.534863   
O226     O      0.000850000000     0.527220000000     0.547560000000    -0.543966   
O227     O      0.044890000000     0.527640000000     0.003650000000    -0.54078    
O228     O      0.457430000000     0.526730000000     0.503620000000    -0.545322   
O229     O      0.457990000000     0.975230000000     0.003650000000    -0.536001   
O230     O      0.045450000000     0.976130000000     0.503620000000    -0.537858   
O231     O      0.502040000000     0.975650000000     0.547560000000    -0.536308   
O232     O      0.002010000000     0.975650000000     0.959710000000    -0.529833   
O233     O      0.002040000000     0.725650000000     0.959710000000    -0.535941   
O234     O      0.502010000000     0.725650000000     0.547550000000    -0.542673   
O235     O      0.457990000000     0.725230000000     0.003620000000    -0.542302   
O236     O      0.045450000000     0.726140000000     0.503650000000    -0.544057   
O237     O      0.044890000000     0.777640000000     0.003620000000    -0.540806   
O238     O      0.457430000000     0.776730000000     0.503650000000    -0.545209   
O239     O      0.000870000000     0.777220000000     0.547550000000    -0.544032   
O240     O      0.500850000000     0.777220000000     0.959710000000    -0.534746   
O241     O      0.250620000000     0.527210000000     0.959720000000    -0.5349     
O242     O      0.252600000000     0.527200000000     0.547540000000    -0.542487   
O243     O      0.295320000000     0.526820000000     0.002840000000    -0.543942   
O244     O      0.207880000000     0.527540000000     0.504420000000    -0.543097   
O245     O      0.207560000000     0.976050000000     0.002840000000    -0.537742   
O246     O      0.295000000000     0.975330000000     0.504420000000    -0.537154   
O247     O      0.250280000000     0.975670000000     0.547540000000    -0.536394   
O248     O      0.252270000000     0.975660000000     0.959720000000    -0.528855   
O249     O      0.252600000000     0.777200000000     0.959740000000    -0.53469    
O250     O      0.250620000000     0.777210000000     0.547560000000    -0.542469   
O251     O      0.295320000000     0.776820000000     0.004440000000    -0.54381    
O252     O      0.207880000000     0.777540000000     0.502870000000    -0.543037   
O253     O      0.207560000000     0.726050000000     0.004440000000    -0.543725   
O254     O      0.295000000000     0.725330000000     0.502870000000    -0.543244   
O255     O      0.252270000000     0.725660000000     0.547560000000    -0.542652   
O256     O      0.250280000000     0.725670000000     0.959740000000    -0.534859   
O257     O      0.975650000000     0.001850000000     0.297560000000    -0.537347   
O258     O      0.975650000000     0.501850000000     0.209710000000    -0.536143   
O259     O      0.975590000000     0.457820000000     0.253640000000    -0.536013   
O260     O      0.975780000000     0.045280000000     0.253630000000    -0.537613   
O261     O      0.527290000000     0.045040000000     0.253640000000    -0.541051   
O262     O      0.527100000000     0.457590000000     0.253630000000    -0.545053   
O263     O      0.527230000000     0.001020000000     0.209710000000    -0.543992   
O264     O      0.527230000000     0.501020000000     0.297560000000    -0.54262    
O265     O      0.527230000000     0.251020000000     0.297560000000    -0.542438   
O266     O      0.527230000000     0.251020000000     0.209710000000    -0.54259    
O267     O      0.527290000000     0.295040000000     0.253630000000    -0.542339   
O268     O      0.527100000000     0.207590000000     0.253630000000    -0.545068   
O269     O      0.975590000000     0.207820000000     0.253630000000    -0.535998   
O270     O      0.975780000000     0.295280000000     0.253630000000    -0.538992   
O271     O      0.975650000000     0.251840000000     0.209710000000    -0.536335   
O272     O      0.975650000000     0.251840000000     0.297560000000    -0.536186   
O273     O      0.777210000000     0.500430000000     0.297550000000    -0.54249    
O274     O      0.777210000000     0.002440000000     0.209730000000    -0.543367   
O275     O      0.777180000000     0.045160000000     0.254440000000    -0.542032   
O276     O      0.777180000000     0.457710000000     0.252840000000    -0.543476   
O277     O      0.725700000000     0.457710000000     0.254440000000    -0.543444   
O278     O      0.725700000000     0.045160000000     0.252840000000    -0.542022   
O279     O      0.725670000000     0.500430000000     0.209730000000    -0.542543   
O280     O      0.725670000000     0.002440000000     0.297550000000    -0.543474   
O281     O      0.725670000000     0.250430000000     0.297560000000    -0.542557   
O282     O      0.725670000000     0.252440000000     0.209740000000    -0.542489   
O283     O      0.725700000000     0.207710000000     0.252840000000    -0.543623   
O284     O      0.725700000000     0.295160000000     0.254450000000    -0.543331   
O285     O      0.777180000000     0.295160000000     0.252840000000    -0.543352   
O286     O      0.777180000000     0.207710000000     0.254450000000    -0.543505   
O287     O      0.777210000000     0.250430000000     0.209740000000    -0.542427   
O288     O      0.777210000000     0.252440000000     0.297560000000    -0.542491   
O289     O      0.000870000000     0.027220000000     0.459710000000    -0.541915   
O290     O      0.500840000000     0.027220000000     0.047560000000    -0.538437   
O291     O      0.544890000000     0.027640000000     0.503650000000    -0.539933   
O292     O      0.957430000000     0.026730000000     0.003620000000    -0.536954   
O293     O      0.958000000000     0.475230000000     0.503650000000    -0.536011   
O294     O      0.545450000000     0.476130000000     0.003620000000    -0.545206   
O295     O      0.002040000000     0.475650000000     0.047560000000    -0.541796   
O296     O      0.502010000000     0.475650000000     0.459710000000    -0.542717   
O297     O      0.502040000000     0.225650000000     0.459710000000    -0.542725   
O298     O      0.002010000000     0.225650000000     0.047560000000    -0.541848   
O299     O      0.958000000000     0.225230000000     0.503620000000    -0.53606    
O300     O      0.545450000000     0.226140000000     0.003650000000    -0.545425   
O301     O      0.544890000000     0.277640000000     0.503620000000    -0.542147   
O302     O      0.957430000000     0.276730000000     0.003650000000    -0.539232   
O303     O      0.500870000000     0.277220000000     0.047560000000    -0.540709   
O304     O      0.000850000000     0.277220000000     0.459710000000    -0.544156   
O305     O      0.750620000000     0.027210000000     0.459720000000    -0.540346   
O306     O      0.752600000000     0.027200000000     0.047540000000    -0.538492   
O307     O      0.795330000000     0.026820000000     0.502850000000    -0.541448   
O308     O      0.707880000000     0.027540000000     0.004420000000    -0.540913   
O309     O      0.707560000000     0.476050000000     0.502850000000    -0.543882   
O310     O      0.795000000000     0.475330000000     0.004420000000    -0.543094   
O311     O      0.750280000000     0.475670000000     0.047540000000    -0.540868   
O312     O      0.752260000000     0.475660000000     0.459720000000    -0.542769   
O313     O      0.752600000000     0.277200000000     0.459740000000    -0.542423   
O314     O      0.750620000000     0.277210000000     0.047560000000    -0.540739   
O315     O      0.795330000000     0.276820000000     0.504440000000    -0.543633   
O316     O      0.707880000000     0.277540000000     0.002870000000    -0.543147   
O317     O      0.707560000000     0.226050000000     0.504440000000    -0.54388    
O318     O      0.795000000000     0.225330000000     0.002870000000    -0.543166   
O319     O      0.752260000000     0.225660000000     0.047560000000    -0.540925   
O320     O      0.750280000000     0.225670000000     0.459740000000    -0.542579   
O321     O      0.975650000000     0.001850000000     0.797560000000    -0.53718    
O322     O      0.975650000000     0.501850000000     0.709710000000    -0.536221   
O323     O      0.975590000000     0.457820000000     0.753640000000    -0.535968   
O324     O      0.975780000000     0.045280000000     0.753640000000    -0.537578   
O325     O      0.527290000000     0.045040000000     0.753640000000    -0.540987   
O326     O      0.527100000000     0.457590000000     0.753640000000    -0.544999   
O327     O      0.527230000000     0.001020000000     0.709710000000    -0.544058   
O328     O      0.527230000000     0.501020000000     0.797560000000    -0.542429   
O329     O      0.527230000000     0.251020000000     0.797560000000    -0.542242   
O330     O      0.527230000000     0.251020000000     0.709710000000    -0.542634   
O331     O      0.527290000000     0.295040000000     0.753630000000    -0.542272   
O332     O      0.527100000000     0.207590000000     0.753630000000    -0.545017   
O333     O      0.975590000000     0.207820000000     0.753630000000    -0.53595    
O334     O      0.975780000000     0.295280000000     0.753630000000    -0.538958   
O335     O      0.975650000000     0.251840000000     0.709710000000    -0.536393   
O336     O      0.975650000000     0.251840000000     0.797560000000    -0.536014   
O337     O      0.777210000000     0.500430000000     0.797550000000    -0.542296   
O338     O      0.777210000000     0.002440000000     0.709730000000    -0.543412   
O339     O      0.777180000000     0.045160000000     0.754440000000    -0.541961   
O340     O      0.777180000000     0.457710000000     0.752840000000    -0.543428   
O341     O      0.725700000000     0.457710000000     0.754440000000    -0.543373   
O342     O      0.725700000000     0.045160000000     0.752840000000    -0.541973   
O343     O      0.725670000000     0.500430000000     0.709730000000    -0.542586   
O344     O      0.725670000000     0.002440000000     0.797550000000    -0.543279   
O345     O      0.725670000000     0.250430000000     0.797560000000    -0.542363   
O346     O      0.725670000000     0.252440000000     0.709740000000    -0.542532   
O347     O      0.725700000000     0.207710000000     0.752840000000    -0.543575   
O348     O      0.725700000000     0.295160000000     0.754450000000    -0.543259   
O349     O      0.777180000000     0.295160000000     0.752840000000    -0.543305   
O350     O      0.777180000000     0.207710000000     0.754450000000    -0.543434   
O351     O      0.777210000000     0.250430000000     0.709740000000    -0.54247    
O352     O      0.777210000000     0.252440000000     0.797560000000    -0.542298   
O353     O      0.000870000000     0.027220000000     0.959710000000    -0.534177   
O354     O      0.500840000000     0.027220000000     0.547560000000    -0.540148   
O355     O      0.544890000000     0.027640000000     0.003650000000    -0.539994   
O356     O      0.957430000000     0.026730000000     0.503620000000    -0.536896   
O357     O      0.958000000000     0.475230000000     0.003650000000    -0.53606    
O358     O      0.545450000000     0.476130000000     0.503620000000    -0.545147   
O359     O      0.002040000000     0.475650000000     0.547560000000    -0.543516   
O360     O      0.502010000000     0.475650000000     0.959710000000    -0.534966   
O361     O      0.502040000000     0.225650000000     0.959710000000    -0.534926   
O362     O      0.002010000000     0.225650000000     0.547550000000    -0.543667   
O363     O      0.958000000000     0.225230000000     0.003620000000    -0.536068   
O364     O      0.545450000000     0.226140000000     0.503650000000    -0.545392   
O365     O      0.544890000000     0.277640000000     0.003620000000    -0.542163   
O366     O      0.957430000000     0.276730000000     0.503650000000    -0.539205   
O367     O      0.500870000000     0.277220000000     0.547550000000    -0.54253    
O368     O      0.000850000000     0.277220000000     0.959710000000    -0.536346   
O369     O      0.750620000000     0.027210000000     0.959720000000    -0.532616   
O370     O      0.752600000000     0.027200000000     0.547540000000    -0.540178   
O371     O      0.795330000000     0.026820000000     0.002840000000    -0.541533   
O372     O      0.707880000000     0.027540000000     0.504420000000    -0.540883   
O373     O      0.707560000000     0.476050000000     0.002840000000    -0.543961   
O374     O      0.795000000000     0.475330000000     0.504420000000    -0.543071   
O375     O      0.750280000000     0.475670000000     0.547540000000    -0.542564   
O376     O      0.752260000000     0.475660000000     0.959720000000    -0.535016   
O377     O      0.752600000000     0.277200000000     0.959740000000    -0.534704   
O378     O      0.750620000000     0.277210000000     0.547560000000    -0.542462   
O379     O      0.795330000000     0.276820000000     0.004440000000    -0.543653   
O380     O      0.707880000000     0.277540000000     0.502870000000    -0.543049   
O381     O      0.707560000000     0.226050000000     0.004440000000    -0.543899   
O382     O      0.795000000000     0.225330000000     0.502870000000    -0.543069   
O383     O      0.752260000000     0.225660000000     0.547560000000    -0.542648   
O384     O      0.750280000000     0.225670000000     0.959740000000    -0.534862   
O385     O      0.975650000000     0.501850000000     0.297560000000    -0.536364   
O386     O      0.975650000000     0.001840000000     0.209710000000    -0.537097   
O387     O      0.975590000000     0.957820000000     0.253640000000    -0.529781   
O388     O      0.975780000000     0.545280000000     0.253630000000    -0.538981   
O389     O      0.527290000000     0.545040000000     0.253640000000    -0.542352   
O390     O      0.527100000000     0.957590000000     0.253630000000    -0.538936   
O391     O      0.527230000000     0.501020000000     0.209710000000    -0.542395   
O392     O      0.527230000000     0.001020000000     0.297560000000    -0.544179   
O393     O      0.527230000000     0.751020000000     0.297560000000    -0.542405   
O394     O      0.527230000000     0.751020000000     0.209710000000    -0.542555   
O395     O      0.527290000000     0.795040000000     0.253630000000    -0.542291   
O396     O      0.527100000000     0.707590000000     0.253630000000    -0.545039   
O397     O      0.975590000000     0.707830000000     0.253630000000    -0.536151   
O398     O      0.975780000000     0.795280000000     0.253630000000    -0.539      
O399     O      0.975650000000     0.751840000000     0.209710000000    -0.536356   
O400     O      0.975650000000     0.751840000000     0.297560000000    -0.536213   
O401     O      0.777210000000     0.000430000000     0.297550000000    -0.544099   
O402     O      0.777210000000     0.502440000000     0.209730000000    -0.542477   
O403     O      0.777180000000     0.545160000000     0.254440000000    -0.543414   
O404     O      0.777180000000     0.957710000000     0.252840000000    -0.537307   
O405     O      0.725700000000     0.957710000000     0.254440000000    -0.537446   
O406     O      0.725700000000     0.545160000000     0.252840000000    -0.543536   
O407     O      0.725670000000     0.000430000000     0.209730000000    -0.544186   
O408     O      0.725670000000     0.502440000000     0.297550000000    -0.542546   
O409     O      0.725670000000     0.750430000000     0.297560000000    -0.54253    
O410     O      0.725670000000     0.752440000000     0.209740000000    -0.542471   
O411     O      0.725700000000     0.707710000000     0.252840000000    -0.54363    
O412     O      0.725700000000     0.795160000000     0.254450000000    -0.543284   
O413     O      0.777180000000     0.795160000000     0.252840000000    -0.543297   
O414     O      0.777180000000     0.707710000000     0.254450000000    -0.543519   
O415     O      0.777210000000     0.750430000000     0.209740000000    -0.542397   
O416     O      0.777210000000     0.752440000000     0.297560000000    -0.542477   
O417     O      0.000870000000     0.527220000000     0.459710000000    -0.544172   
O418     O      0.500840000000     0.527220000000     0.047560000000    -0.540684   
O419     O      0.544890000000     0.527640000000     0.503650000000    -0.542053   
O420     O      0.957430000000     0.526730000000     0.003620000000    -0.539227   
O421     O      0.958000000000     0.975230000000     0.503650000000    -0.529855   
O422     O      0.545450000000     0.976130000000     0.003620000000    -0.539261   
O423     O      0.002040000000     0.975650000000     0.047560000000    -0.535624   
O424     O      0.502010000000     0.975650000000     0.459710000000    -0.536526   
O425     O      0.502040000000     0.725650000000     0.459710000000    -0.542737   
O426     O      0.002010000000     0.725650000000     0.047560000000    -0.541862   
O427     O      0.958000000000     0.725230000000     0.503620000000    -0.536172   
O428     O      0.545450000000     0.726140000000     0.003650000000    -0.54543    
O429     O      0.544890000000     0.777640000000     0.503620000000    -0.542103   
O430     O      0.957430000000     0.776730000000     0.003650000000    -0.539079   
O431     O      0.500870000000     0.777220000000     0.047560000000    -0.540655   
O432     O      0.000850000000     0.777220000000     0.459710000000    -0.544099   
O433     O      0.750620000000     0.527210000000     0.459720000000    -0.542611   
O434     O      0.752600000000     0.527200000000     0.047540000000    -0.540738   
O435     O      0.795330000000     0.526820000000     0.502850000000    -0.543657   
O436     O      0.707880000000     0.527540000000     0.004420000000    -0.543095   
O437     O      0.707560000000     0.976050000000     0.502850000000    -0.537821   
O438     O      0.795000000000     0.975330000000     0.004420000000    -0.537024   
O439     O      0.750280000000     0.975670000000     0.047540000000    -0.534703   
O440     O      0.752260000000     0.975660000000     0.459720000000    -0.536587   
O441     O      0.752600000000     0.777200000000     0.459740000000    -0.542369   
O442     O      0.750620000000     0.777210000000     0.047560000000    -0.540686   
O443     O      0.795330000000     0.776820000000     0.504440000000    -0.543585   
O444     O      0.707880000000     0.777540000000     0.002870000000    -0.543109   
O445     O      0.707560000000     0.726050000000     0.504440000000    -0.543879   
O446     O      0.795000000000     0.725330000000     0.002870000000    -0.543168   
O447     O      0.752260000000     0.725660000000     0.047560000000    -0.540928   
O448     O      0.750280000000     0.725670000000     0.459740000000    -0.542582   
O449     O      0.975650000000     0.501850000000     0.797560000000    -0.536197   
O450     O      0.975650000000     0.001840000000     0.709710000000    -0.537177   
O451     O      0.975590000000     0.957820000000     0.753640000000    -0.529739   
O452     O      0.975780000000     0.545280000000     0.753640000000    -0.538945   
O453     O      0.527290000000     0.545040000000     0.753640000000    -0.542288   
O454     O      0.527100000000     0.957590000000     0.753640000000    -0.538886   
O455     O      0.527230000000     0.501020000000     0.709710000000    -0.542459   
O456     O      0.527230000000     0.001020000000     0.797560000000    -0.543987   
O457     O      0.527230000000     0.751020000000     0.797560000000    -0.54221    
O458     O      0.527230000000     0.751020000000     0.709710000000    -0.542599   
O459     O      0.527290000000     0.795040000000     0.753630000000    -0.542224   
O460     O      0.527100000000     0.707590000000     0.753630000000    -0.544987   
O461     O      0.975590000000     0.707830000000     0.753630000000    -0.536103   
O462     O      0.975780000000     0.795280000000     0.753630000000    -0.538966   
O463     O      0.975650000000     0.751840000000     0.709710000000    -0.536414   
O464     O      0.975650000000     0.751840000000     0.797560000000    -0.536041   
O465     O      0.777210000000     0.000430000000     0.797550000000    -0.543903   
O466     O      0.777210000000     0.502440000000     0.709730000000    -0.54252    
O467     O      0.777180000000     0.545160000000     0.754440000000    -0.543344   
O468     O      0.777180000000     0.957710000000     0.752840000000    -0.537261   
O469     O      0.725700000000     0.957710000000     0.754440000000    -0.537378   
O470     O      0.725700000000     0.545160000000     0.752840000000    -0.543488   
O471     O      0.725670000000     0.000430000000     0.709730000000    -0.544231   
O472     O      0.725670000000     0.502440000000     0.797550000000    -0.542351   
O473     O      0.725670000000     0.750430000000     0.797560000000    -0.542337   
O474     O      0.725670000000     0.752440000000     0.709740000000    -0.542514   
O475     O      0.725700000000     0.707710000000     0.752840000000    -0.543582   
O476     O      0.725700000000     0.795160000000     0.754450000000    -0.543213   
O477     O      0.777180000000     0.795160000000     0.752840000000    -0.543249   
O478     O      0.777180000000     0.707710000000     0.754450000000    -0.543448   
O479     O      0.777210000000     0.750430000000     0.709740000000    -0.542439   
O480     O      0.777210000000     0.752440000000     0.797560000000    -0.542284   
O481     O      0.000870000000     0.527220000000     0.959710000000    -0.536412   
O482     O      0.500840000000     0.527220000000     0.547560000000    -0.542405   
O483     O      0.544890000000     0.527640000000     0.003650000000    -0.542109   
O484     O      0.957430000000     0.526730000000     0.503620000000    -0.539174   
O485     O      0.958000000000     0.975230000000     0.003650000000    -0.529919   
O486     O      0.545450000000     0.976130000000     0.503620000000    -0.539187   
O487     O      0.002040000000     0.975650000000     0.547560000000    -0.537329   
O488     O      0.502010000000     0.975650000000     0.959710000000    -0.528818   
O489     O      0.502040000000     0.725650000000     0.959710000000    -0.53494    
O490     O      0.002010000000     0.725650000000     0.547550000000    -0.543681   
O491     O      0.958000000000     0.725230000000     0.003620000000    -0.53618    
O492     O      0.545450000000     0.726140000000     0.503650000000    -0.545396   
O493     O      0.544890000000     0.777640000000     0.003620000000    -0.542119   
O494     O      0.957430000000     0.776730000000     0.503650000000    -0.539051   
O495     O      0.500870000000     0.777220000000     0.547550000000    -0.542476   
O496     O      0.000850000000     0.777220000000     0.959710000000    -0.536296   
O497     O      0.750620000000     0.527210000000     0.959720000000    -0.534859   
O498     O      0.752600000000     0.527200000000     0.547540000000    -0.542434   
O499     O      0.795330000000     0.526820000000     0.002840000000    -0.543737   
O500     O      0.707880000000     0.527540000000     0.504420000000    -0.543071   
O501     O      0.707560000000     0.976050000000     0.002840000000    -0.537915   
O502     O      0.795000000000     0.975330000000     0.504420000000    -0.536986   
O503     O      0.750280000000     0.975670000000     0.547540000000    -0.536384   
O504     O      0.752260000000     0.975660000000     0.959720000000    -0.528876   
O505     O      0.752600000000     0.777200000000     0.959740000000    -0.534657   
O506     O      0.750620000000     0.777210000000     0.547560000000    -0.542409   
O507     O      0.795330000000     0.776820000000     0.004440000000    -0.543605   
O508     O      0.707880000000     0.777540000000     0.502870000000    -0.54301    
O509     O      0.707560000000     0.726050000000     0.004440000000    -0.543898   
O510     O      0.795000000000     0.725330000000     0.502870000000    -0.54307    
O511     O      0.752260000000     0.725660000000     0.547560000000    -0.542652   
O512     O      0.750280000000     0.725670000000     0.959740000000    -0.534866   
V1       V      0.473600000000     0.501650000000     0.253640000000     1.3843     
V2       V      0.029280000000     0.501220000000     0.253640000000     1.37495    
V3       V      0.029280000000     0.251220000000     0.253630000000     1.375      
V4       V      0.473600000000     0.251650000000     0.253630000000     1.38437    
V5       V      0.279280000000     0.001430000000     0.253640000000     1.37661    
V6       V      0.223610000000     0.001430000000     0.253640000000     1.37651    
V7       V      0.223610000000     0.251430000000     0.253650000000     1.38441    
V8       V      0.279280000000     0.251430000000     0.253650000000     1.38433    
V9       V      0.001040000000     0.029270000000     0.503630000000     1.36675    
V10      V      0.001840000000     0.473590000000     0.003630000000     1.368      
V11      V      0.501840000000     0.223590000000     0.503630000000     1.38462    
V12      V      0.501040000000     0.279270000000     0.003630000000     1.37551    
V13      V      0.251630000000     0.029270000000     0.503630000000     1.3747     
V14      V      0.251260000000     0.473600000000     0.003630000000     1.37558    
V15      V      0.251630000000     0.279270000000     0.503650000000     1.38445    
V16      V      0.251260000000     0.223600000000     0.003650000000     1.37558    
V17      V      0.473600000000     0.501650000000     0.753640000000     1.38439    
V18      V      0.029280000000     0.501220000000     0.753640000000     1.37507    
V19      V      0.029280000000     0.251220000000     0.753630000000     1.37511    
V20      V      0.473600000000     0.251650000000     0.753630000000     1.38445    
V21      V      0.279280000000     0.001430000000     0.753640000000     1.37669    
V22      V      0.223610000000     0.001430000000     0.753640000000     1.3766     
V23      V      0.223610000000     0.251430000000     0.753650000000     1.3845     
V24      V      0.279280000000     0.251430000000     0.753650000000     1.38441    
V25      V      0.001040000000     0.029270000000     0.003630000000     1.35787    
V26      V      0.001840000000     0.473590000000     0.503630000000     1.37692    
V27      V      0.501840000000     0.223590000000     0.003630000000     1.37545    
V28      V      0.501040000000     0.279270000000     0.503630000000     1.38469    
V29      V      0.251630000000     0.029270000000     0.003630000000     1.36581    
V30      V      0.251260000000     0.473600000000     0.503630000000     1.38452    
V31      V      0.251630000000     0.279270000000     0.003650000000     1.37552    
V32      V      0.251260000000     0.223600000000     0.503650000000     1.3845     
V33      V      0.473600000000     0.001650000000     0.253640000000     1.37668    
V34      V      0.029280000000     0.001220000000     0.253640000000     1.36705    
V35      V      0.029280000000     0.751220000000     0.253630000000     1.37493    
V36      V      0.473600000000     0.751650000000     0.253630000000     1.38468    
V37      V      0.279280000000     0.501430000000     0.253640000000     1.38429    
V38      V      0.223610000000     0.501440000000     0.253640000000     1.38439    
V39      V      0.223610000000     0.751430000000     0.253650000000     1.38441    
V40      V      0.279280000000     0.751430000000     0.253650000000     1.38433    
V41      V      0.001040000000     0.529270000000     0.503630000000     1.37636    
V42      V      0.001840000000     0.973590000000     0.003630000000     1.37318    
V43      V      0.501840000000     0.723590000000     0.503630000000     1.38451    
V44      V      0.501040000000     0.779270000000     0.003630000000     1.37564    
V45      V      0.251630000000     0.529270000000     0.503630000000     1.38435    
V46      V      0.251260000000     0.973600000000     0.003630000000     1.38076    
V47      V      0.251630000000     0.779270000000     0.503650000000     1.38461    
V48      V      0.251260000000     0.723600000000     0.003650000000     1.37541    
V49      V      0.473600000000     0.001650000000     0.753640000000     1.37677    
V50      V      0.029280000000     0.001220000000     0.753640000000     1.36717    
V51      V      0.029280000000     0.751220000000     0.753630000000     1.37504    
V52      V      0.473600000000     0.751650000000     0.753630000000     1.38477    
V53      V      0.279280000000     0.501430000000     0.753640000000     1.38437    
V54      V      0.223610000000     0.501440000000     0.753640000000     1.38447    
V55      V      0.223610000000     0.751430000000     0.753650000000     1.38449    
V56      V      0.279280000000     0.751430000000     0.753650000000     1.38441    
V57      V      0.001040000000     0.529270000000     0.003630000000     1.36743    
V58      V      0.001840000000     0.973590000000     0.503630000000     1.38208    
V59      V      0.501840000000     0.723590000000     0.003630000000     1.37533    
V60      V      0.501040000000     0.779270000000     0.503630000000     1.38481    
V61      V      0.251630000000     0.529270000000     0.003630000000     1.37542    
V62      V      0.251260000000     0.973600000000     0.503630000000     1.38968    
V63      V      0.251630000000     0.779270000000     0.003650000000     1.37569    
V64      V      0.251260000000     0.723600000000     0.503650000000     1.38433    
V65      V      0.973600000000     0.501650000000     0.253640000000     1.38947    
V66      V      0.529280000000     0.501220000000     0.253640000000     1.38462    
V67      V      0.529280000000     0.251220000000     0.253630000000     1.38466    
V68      V      0.973600000000     0.251650000000     0.253630000000     1.38953    
V69      V      0.779280000000     0.001430000000     0.253640000000     1.37678    
V70      V      0.723610000000     0.001430000000     0.253640000000     1.37635    
V71      V      0.723610000000     0.251430000000     0.253650000000     1.38425    
V72      V      0.779280000000     0.251430000000     0.253650000000     1.38449    
V73      V      0.501040000000     0.029270000000     0.503630000000     1.37464    
V74      V      0.501840000000     0.473590000000     0.003630000000     1.3754     
V75      V      0.001840000000     0.223590000000     0.503630000000     1.37722    
V76      V      0.001040000000     0.279270000000     0.003630000000     1.36758    
V77      V      0.751630000000     0.029270000000     0.503630000000     1.37438    
V78      V      0.751250000000     0.473600000000     0.003630000000     1.37568    
V79      V      0.751630000000     0.279270000000     0.503650000000     1.38412    
V80      V      0.751250000000     0.223600000000     0.003650000000     1.37567    
V81      V      0.973600000000     0.501650000000     0.753640000000     1.38954    
V82      V      0.529280000000     0.501220000000     0.753640000000     1.3847     
V83      V      0.529280000000     0.251220000000     0.753630000000     1.38474    
V84      V      0.973600000000     0.251650000000     0.753630000000     1.3896     
V85      V      0.779280000000     0.001430000000     0.753640000000     1.37686    
V86      V      0.723610000000     0.001430000000     0.753640000000     1.37643    
V87      V      0.723610000000     0.251430000000     0.753650000000     1.38433    
V88      V      0.779280000000     0.251430000000     0.753650000000     1.38458    
V89      V      0.501040000000     0.029270000000     0.003630000000     1.36576    
V90      V      0.501840000000     0.473590000000     0.503630000000     1.38433    
V91      V      0.001840000000     0.223590000000     0.003630000000     1.36805    
V92      V      0.001040000000     0.279270000000     0.503630000000     1.37676    
V93      V      0.751630000000     0.029270000000     0.003630000000     1.36551    
V94      V      0.751250000000     0.473600000000     0.503630000000     1.38459    
V95      V      0.751630000000     0.279270000000     0.003650000000     1.37522    
V96      V      0.751250000000     0.223600000000     0.503650000000     1.38457    
V97      V      0.973600000000     0.001650000000     0.253640000000     1.38186    
V98      V      0.529280000000     0.001220000000     0.253640000000     1.37667    
V99      V      0.529280000000     0.751220000000     0.253630000000     1.38459    
V100     V      0.973600000000     0.751650000000     0.253630000000     1.38984    
V101     V      0.779280000000     0.501430000000     0.253640000000     1.38445    
V102     V      0.723610000000     0.501440000000     0.253640000000     1.38422    
V103     V      0.723610000000     0.751430000000     0.253650000000     1.38424    
V104     V      0.779280000000     0.751430000000     0.253650000000     1.38449    
V105     V      0.501040000000     0.529270000000     0.503630000000     1.38429    
V106     V      0.501840000000     0.973590000000     0.003630000000     1.38057    
V107     V      0.001840000000     0.723590000000     0.503630000000     1.37711    
V108     V      0.001040000000     0.779270000000     0.003630000000     1.36771    
V109     V      0.751630000000     0.529270000000     0.503630000000     1.38403    
V110     V      0.751250000000     0.973600000000     0.003630000000     1.38085    
V111     V      0.751630000000     0.779270000000     0.503650000000     1.38429    
V112     V      0.751250000000     0.723600000000     0.003650000000     1.3755     
V113     V      0.973600000000     0.001650000000     0.753640000000     1.38193    
V114     V      0.529280000000     0.001220000000     0.753640000000     1.37676    
V115     V      0.529280000000     0.751220000000     0.753630000000     1.38467    
V116     V      0.973600000000     0.751650000000     0.753630000000     1.38991    
V117     V      0.779280000000     0.501430000000     0.753640000000     1.38453    
V118     V      0.723610000000     0.501440000000     0.753640000000     1.38431    
V119     V      0.723610000000     0.751430000000     0.753650000000     1.38433    
V120     V      0.779280000000     0.751430000000     0.753650000000     1.38457    
V121     V      0.501040000000     0.529270000000     0.003630000000     1.37536    
V122     V      0.501840000000     0.973590000000     0.503630000000     1.38948    
V123     V      0.001840000000     0.723590000000     0.003630000000     1.36793    
V124     V      0.001040000000     0.779270000000     0.503630000000     1.37688    
V125     V      0.751630000000     0.529270000000     0.003630000000     1.37511    
V126     V      0.751250000000     0.973600000000     0.503630000000     1.38975    
V127     V      0.751630000000     0.779270000000     0.003650000000     1.37539    
V128     V      0.751250000000     0.723600000000     0.503650000000     1.38441    


