data_structure

_audit_creation_method RASPA-1.0
_audit_creation_date 2023-5-22
_audit_author_name 'Poobodin Mano'

_cell_length_a    43.4094
_cell_length_b    43.4094
_cell_length_c    43.3179
_cell_angle_alpha 90
_cell_angle_beta  90
_cell_angle_gamma 90
_cell_volume      81627.2

_symmetry_cell_setting          triclinic
_symmetry_space_group_name_Hall 'P 1'
_symmetry_space_group_name_H-M  'P 1'
_symmetry_Int_Tables_number     1

_symmetry_equiv_pos_as_xyz 'x,y,z'

loop_
_atom_site_label
_atom_site_type_symbol
_atom_site_fract_x
_atom_site_fract_y
_atom_site_fract_z
_atom_site_charge
C1       C      0.501970000000     0.443140000000     0.127760000000     0.425288   
C2       C      0.500930000000     0.059680000000     0.127780000000     0.424638   
C3       C      0.001440000000     0.001390000000     0.186040000000     0.41926    
C4       C      0.001460000000     0.001420000000     0.069350000000     0.416846   
C5       C      0.501970000000     0.309680000000     0.127770000000     0.425298   
C6       C      0.500930000000     0.193140000000     0.127780000000     0.425314   
C7       C      0.001460000000     0.251410000000     0.069360000000     0.417796   
C8       C      0.001440000000     0.251420000000     0.186050000000     0.418462   
C9       C      0.251470000000     0.443150000000     0.127760000000     0.425003   
C10      C      0.251330000000     0.059700000000     0.127790000000     0.424359   
C11      C      0.251400000000     0.001440000000     0.069360000000     0.42434    
C12      C      0.251400000000     0.001400000000     0.186050000000     0.427071   
C13      C      0.251400000000     0.251420000000     0.069370000000     0.42541    
C14      C      0.251400000000     0.251420000000     0.186050000000     0.426037   
C15      C      0.251470000000     0.193150000000     0.127790000000     0.425046   
C16      C      0.251330000000     0.309700000000     0.127780000000     0.425011   
C17      C      0.501460000000     0.001450000000     0.935600000000     0.424428   
C18      C      0.501460000000     0.001440000000     0.818920000000     0.42724    
C19      C      0.001990000000     0.059720000000     0.877180000000     0.416703   
C20      C      0.000940000000     0.443170000000     0.877200000000     0.417769   
C21      C      0.501470000000     0.251430000000     0.935610000000     0.425892   
C22      C      0.501460000000     0.251450000000     0.818930000000     0.426101   
C23      C      0.000940000000     0.309720000000     0.877210000000     0.417777   
C24      C      0.001980000000     0.193170000000     0.877190000000     0.417353   
C25      C      0.251350000000     0.443180000000     0.877200000000     0.425384   
C26      C      0.251480000000     0.059730000000     0.877180000000     0.424398   
C27      C      0.251410000000     0.001470000000     0.935610000000     0.424271   
C28      C      0.251420000000     0.001450000000     0.818920000000     0.427261   
C29      C      0.251480000000     0.309730000000     0.877210000000     0.425057   
C30      C      0.251350000000     0.193180000000     0.877190000000     0.425415   
C31      C      0.251410000000     0.251450000000     0.935610000000     0.425481   
C32      C      0.251420000000     0.251470000000     0.818930000000     0.426122   
C33      C      0.001420000000     0.501360000000     0.318920000000     0.427276   
C34      C      0.001410000000     0.501350000000     0.435600000000     0.424384   
C35      C      0.059680000000     0.001290000000     0.377190000000     0.417182   
C36      C      0.443130000000     0.001420000000     0.377180000000     0.41741    
C37      C      0.443120000000     0.250920000000     0.377190000000     0.424907   
C38      C      0.059670000000     0.251970000000     0.377200000000     0.424343   
C39      C      0.001400000000     0.251440000000     0.318930000000     0.427315   
C40      C      0.001390000000     0.251450000000     0.435610000000     0.424445   
C41      C      0.251420000000     0.001350000000     0.435600000000     0.417836   
C42      C      0.251410000000     0.001360000000     0.318920000000     0.41824    
C43      C      0.309680000000     0.501280000000     0.377180000000     0.425416   
C44      C      0.193130000000     0.501420000000     0.377190000000     0.425059   
C45      C      0.251400000000     0.251450000000     0.435610000000     0.425527   
C46      C      0.251390000000     0.251440000000     0.318930000000     0.426433   
C47      C      0.193120000000     0.251970000000     0.377200000000     0.425017   
C48      C      0.309670000000     0.250920000000     0.377200000000     0.425014   
C49      C      0.001420000000     0.501360000000     0.569360000000     0.424652   
C50      C      0.001440000000     0.501390000000     0.686040000000     0.427293   
C51      C      0.059700000000     0.001440000000     0.627760000000     0.416846   
C52      C      0.443150000000     0.001310000000     0.627780000000     0.417473   
C53      C      0.501410000000     0.251470000000     0.569360000000     0.425361   
C54      C      0.501430000000     0.251470000000     0.686050000000     0.425917   
C55      C      0.443150000000     0.251990000000     0.627780000000     0.425315   
C56      C      0.059690000000     0.250950000000     0.627770000000     0.424311   
C57      C      0.251420000000     0.001390000000     0.686050000000     0.418138   
C58      C      0.251430000000     0.001360000000     0.569360000000     0.418207   
C59      C      0.309700000000     0.501440000000     0.627780000000     0.425489   
C60      C      0.193150000000     0.501310000000     0.627770000000     0.425062   
C61      C      0.193150000000     0.250950000000     0.627780000000     0.425335   
C62      C      0.309690000000     0.251990000000     0.627780000000     0.425326   
C63      C      0.251420000000     0.251470000000     0.686050000000     0.426043   
C64      C      0.251420000000     0.251460000000     0.569360000000     0.42578    
C65      C      0.392500000000     0.224280000000     0.627440000000    -0.000451074
C66      C      0.409000000000     0.252150000000     0.627800000000    -0.106142   
C67      C      0.392530000000     0.280040000000     0.628170000000    -0.000256907
C68      C      0.360310000000     0.280040000000     0.628170000000    -0.000248062
C69      C      0.343840000000     0.252150000000     0.627800000000    -0.106142   
C70      C      0.360330000000     0.224280000000     0.627440000000    -0.000450637
C71      C      0.110340000000     0.278660000000     0.627420000000    -0.000606034
C72      C      0.093840000000     0.250790000000     0.627780000000    -0.105822   
C73      C      0.110310000000     0.222900000000     0.628160000000    -0.000447598
C74      C      0.142530000000     0.222900000000     0.628160000000    -0.000208497
C75      C      0.159000000000     0.250790000000     0.627790000000    -0.106199   
C76      C      0.142500000000     0.278660000000     0.627420000000    -0.000386078
C77      C      0.392500000000     0.473470000000     0.627820000000    -0.000308732
C78      C      0.409010000000     0.001320000000     0.627800000000    -0.112507   
C79      C      0.392550000000     0.029230000000     0.627800000000    -0.000124486
C80      C      0.360360000000     0.029290000000     0.627800000000    -0.000257338
C81      C      0.343840000000     0.501430000000     0.627800000000    -0.106301   
C82      C      0.360300000000     0.473520000000     0.627810000000    -0.000297709
C83      C      0.110300000000     0.473520000000     0.627800000000    -0.00049518 
C84      C      0.093840000000     0.001430000000     0.627780000000    -0.112354   
C85      C      0.110360000000     0.029280000000     0.627780000000    -0.0002097  
C86      C      0.142550000000     0.029230000000     0.627780000000    -0.000109205
C87      C      0.159010000000     0.501320000000     0.627790000000    -0.106237   
C88      C      0.142500000000     0.473470000000     0.627810000000    -0.000336158
C89      C      0.251410000000     0.279340000000     0.486350000000    -0.000291364
C90      C      0.251410000000     0.251450000000     0.469830000000    -0.105862   
C91      C      0.251410000000     0.223570000000     0.486360000000    -0.000296487
C92      C      0.251410000000     0.223580000000     0.518630000000     2.54857e-05
C93      C      0.251420000000     0.251460000000     0.535150000000    -0.106254   
C94      C      0.251420000000     0.279340000000     0.518620000000     1.67414e-05
C95      C      0.251420000000     0.029230000000     0.486350000000    -2.65327e-05
C96      C      0.251420000000     0.001350000000     0.469820000000    -0.112215   
C97      C      0.251420000000     0.473470000000     0.486350000000    -0.000167946
C98      C      0.251420000000     0.473470000000     0.518620000000    -0.000153288
C99      C      0.251430000000     0.001350000000     0.535140000000    -0.112405   
C100     C      0.251430000000     0.029230000000     0.518610000000     0.000123085
C101     C      0.501400000000     0.279340000000     0.486350000000    -0.000159411
C102     C      0.001400000000     0.251460000000     0.469830000000    -0.106544   
C103     C      0.001400000000     0.223580000000     0.486360000000    -0.000681103
C104     C      0.001400000000     0.223580000000     0.518620000000    -0.000728038
C105     C      0.501400000000     0.251460000000     0.535140000000    -0.105951   
C106     C      0.501400000000     0.279340000000     0.518620000000    -0.000184705
C107     C      0.392480000000     0.278630000000     0.377540000000    -0.000427277
C108     C      0.408980000000     0.250770000000     0.377180000000    -0.106129   
C109     C      0.392510000000     0.222870000000     0.376810000000    -0.000313283
C110     C      0.360290000000     0.222870000000     0.376810000000    -0.00030853 
C111     C      0.343810000000     0.250770000000     0.377180000000    -0.106135   
C112     C      0.360310000000     0.278630000000     0.377540000000    -0.00042145 
C113     C      0.110290000000     0.280020000000     0.376810000000    -0.000426626
C114     C      0.093810000000     0.252120000000     0.377190000000    -0.105959   
C115     C      0.110310000000     0.224260000000     0.377560000000    -0.000524962
C116     C      0.142480000000     0.224260000000     0.377560000000    -0.000402334
C117     C      0.158980000000     0.252120000000     0.377190000000    -0.106174   
C118     C      0.142510000000     0.280020000000     0.376810000000    -0.000274353
C119     C      0.501400000000     0.029230000000     0.486340000000     8.62776e-05
C120     C      0.001410000000     0.501350000000     0.469820000000    -0.106566   
C121     C      0.001410000000     0.473470000000     0.486350000000    -0.000654751
C122     C      0.001410000000     0.473470000000     0.518610000000    -0.000797592
C123     C      0.001410000000     0.501360000000     0.535130000000    -0.106469   
C124     C      0.501420000000     0.029240000000     0.518610000000    -4.69795e-05
C125     C      0.392530000000     0.473490000000     0.377160000000    -0.00035037 
C126     C      0.408990000000     0.001400000000     0.377160000000    -0.112525   
C127     C      0.392480000000     0.029260000000     0.377160000000    -0.000130879
C128     C      0.360280000000     0.029210000000     0.377160000000    -0.000105556
C129     C      0.343830000000     0.001300000000     0.377160000000    -0.112457   
C130     C      0.360340000000     0.473440000000     0.377150000000    -0.000447806
C131     C      0.110340000000     0.473450000000     0.377160000000    -0.000400429
C132     C      0.093830000000     0.001300000000     0.377170000000    -0.112255   
C133     C      0.110280000000     0.029210000000     0.377170000000    -0.000300918
C134     C      0.142480000000     0.029260000000     0.377160000000    -0.000102659
C135     C      0.158990000000     0.001410000000     0.377170000000    -0.11259    
C136     C      0.142530000000     0.473500000000     0.377170000000    -0.000327713
C137     C      0.271430000000     0.232000000000     0.768620000000     0.0014176  
C138     C      0.251420000000     0.251470000000     0.784970000000    -0.106542   
C139     C      0.231410000000     0.270950000000     0.768620000000     0.00137917 
C140     C      0.231810000000     0.271350000000     0.736360000000     0.00145679 
C141     C      0.251420000000     0.251480000000     0.720010000000    -0.106545   
C142     C      0.271030000000     0.231600000000     0.736360000000     0.00140896 
C143     C      0.231480000000     0.020970000000     0.768610000000     0.0029592  
C144     C      0.251420000000     0.001430000000     0.784960000000    -0.115793   
C145     C      0.271360000000     0.481880000000     0.768630000000     0.00132227 
C146     C      0.270960000000     0.481470000000     0.736360000000     0.00144664 
C147     C      0.251420000000     0.001410000000     0.720000000000    -0.112412   
C148     C      0.231880000000     0.021360000000     0.736340000000     0.000716839
C149     C      0.279320000000     0.360390000000     0.877180000000    -0.000378788
C150     C      0.251470000000     0.343880000000     0.877190000000    -0.106018   
C151     C      0.223550000000     0.360330000000     0.877180000000    -0.000479022
C152     C      0.223500000000     0.392530000000     0.877170000000    -0.000320471
C153     C      0.251360000000     0.409040000000     0.877180000000    -0.106318   
C154     C      0.279270000000     0.392590000000     0.877190000000    -0.000233095
C155     C      0.223560000000     0.110330000000     0.877160000000    -0.000468955
C156     C      0.251470000000     0.093880000000     0.877160000000    -0.105894   
C157     C      0.279320000000     0.110390000000     0.877150000000    -0.000533211
C158     C      0.279270000000     0.142580000000     0.877160000000    -0.000290359
C159     C      0.251360000000     0.159040000000     0.877160000000    -0.106333   
C160     C      0.223500000000     0.142530000000     0.877150000000    -0.000277671
C161     C      0.481510000000     0.231920000000     0.768620000000     0.00147578 
C162     C      0.501450000000     0.251460000000     0.784970000000    -0.106574   
C163     C      0.021390000000     0.271010000000     0.768620000000     0.000738286
C164     C      0.020980000000     0.271410000000     0.736350000000     0.00305591 
C165     C      0.501430000000     0.251470000000     0.720010000000    -0.106483   
C166     C      0.481900000000     0.231520000000     0.736350000000     0.0013643  
C167     C      0.481590000000     0.021040000000     0.768610000000     0.00298442 
C168     C      0.001460000000     0.001430000000     0.784960000000    -0.12142    
C169     C      0.021320000000     0.481800000000     0.768620000000     0.000682164
C170     C      0.020920000000     0.481400000000     0.736350000000     0.00308536 
C171     C      0.001440000000     0.501400000000     0.720000000000    -0.115827   
C172     C      0.481980000000     0.021420000000     0.736340000000     0.000748424
C173     C      0.028650000000     0.392530000000     0.877550000000    -0.000179003
C174     C      0.000780000000     0.409030000000     0.877190000000    -0.112534   
C175     C      0.472890000000     0.392560000000     0.876810000000    -0.000252354
C176     C      0.472890000000     0.360330000000     0.876820000000    -0.000255967
C177     C      0.000780000000     0.343860000000     0.877190000000    -0.112517   
C178     C      0.028650000000     0.360360000000     0.877560000000    -0.000177973
C179     C      0.030040000000     0.110330000000     0.876790000000    -0.000251658
C180     C      0.002140000000     0.093860000000     0.877170000000    -0.1123     
C181     C      0.474270000000     0.110360000000     0.877530000000    -0.000580741
C182     C      0.474270000000     0.142530000000     0.877530000000    -0.00045349 
C183     C      0.002140000000     0.159030000000     0.877170000000    -0.112493   
C184     C      0.030040000000     0.142560000000     0.876790000000    -0.00012098 
C185     C      0.271410000000     0.270900000000     0.236350000000     0.00131499 
C186     C      0.251390000000     0.251430000000     0.220010000000    -0.106481   
C187     C      0.231380000000     0.231960000000     0.236360000000     0.00137415 
C188     C      0.231770000000     0.231570000000     0.268630000000     0.00144952 
C189     C      0.251390000000     0.251440000000     0.284970000000    -0.106699   
C190     C      0.271010000000     0.271300000000     0.268620000000     0.00154174 
C191     C      0.223520000000     0.251430000000     0.018620000000    -0.000202397
C192     C      0.251400000000     0.251420000000     0.035150000000    -0.10587    
C193     C      0.279290000000     0.251420000000     0.018620000000    -0.000227134
C194     C      0.279290000000     0.251440000000     0.986360000000    -0.000159267
C195     C      0.251410000000     0.251440000000     0.969830000000    -0.10592    
C196     C      0.223520000000     0.251430000000     0.986360000000    -0.000201872
C197     C      0.231460000000     0.481840000000     0.236340000000     0.00136865 
C198     C      0.251400000000     0.001390000000     0.220000000000    -0.115826   
C199     C      0.271350000000     0.020930000000     0.236350000000     0.00293281 
C200     C      0.270950000000     0.021310000000     0.268620000000     0.00074646 
C201     C      0.251410000000     0.001370000000     0.284960000000    -0.112339   
C202     C      0.231860000000     0.481430000000     0.268610000000     0.00132579 
C203     C      0.223520000000     0.001460000000     0.018610000000    -0.000728494
C204     C      0.251400000000     0.001450000000     0.035140000000    -0.106484   
C205     C      0.279280000000     0.501450000000     0.018620000000    -0.000157176
C206     C      0.279290000000     0.501460000000     0.986350000000    -0.00020935 
C207     C      0.251410000000     0.001460000000     0.969820000000    -0.106563   
C208     C      0.223520000000     0.001460000000     0.986350000000    -0.000723998
C209     C      0.223540000000     0.392550000000     0.127780000000    -0.000348786
C210     C      0.251450000000     0.409000000000     0.127780000000    -0.106039   
C211     C      0.279310000000     0.392490000000     0.127800000000    -0.000453458
C212     C      0.279260000000     0.360290000000     0.127790000000    -0.000340976
C213     C      0.251350000000     0.343840000000     0.127790000000    -0.106144   
C214     C      0.223490000000     0.360350000000     0.127800000000    -0.000364499
C215     C      0.279310000000     0.142490000000     0.127820000000    -0.000473308
C216     C      0.251450000000     0.159000000000     0.127810000000    -0.106003   
C217     C      0.223540000000     0.142550000000     0.127810000000    -0.000437341
C218     C      0.223490000000     0.110350000000     0.127820000000    -0.000450847
C219     C      0.251350000000     0.093840000000     0.127810000000    -0.106054   
C220     C      0.279250000000     0.110300000000     0.127810000000    -0.00025155 
C221     C      0.481490000000     0.270970000000     0.236340000000     0.00145437 
C222     C      0.001430000000     0.251420000000     0.220010000000    -0.112376   
C223     C      0.021360000000     0.231880000000     0.236360000000     0.000861258
C224     C      0.020960000000     0.231490000000     0.268630000000     0.00300999 
C225     C      0.001410000000     0.251430000000     0.284970000000    -0.115713   
C226     C      0.481870000000     0.271370000000     0.268610000000     0.0013693  
C227     C      0.473580000000     0.251420000000     0.986350000000    -0.000135754
C228     C      0.501470000000     0.251430000000     0.969830000000    -0.106124   
C229     C      0.029350000000     0.251420000000     0.986360000000     4.01513e-05
C230     C      0.029350000000     0.251420000000     0.018620000000    -1.5939e-05 
C231     C      0.001460000000     0.251410000000     0.035140000000    -0.112213   
C232     C      0.473580000000     0.251410000000     0.018620000000    -0.000228644
C233     C      0.481560000000     0.481760000000     0.236330000000     0.00130871 
C234     C      0.001440000000     0.001380000000     0.220000000000    -0.121389   
C235     C      0.021300000000     0.020990000000     0.236350000000     0.00238392 
C236     C      0.020900000000     0.021380000000     0.268620000000     0.00229648 
C237     C      0.001420000000     0.501360000000     0.284960000000    -0.115766   
C238     C      0.481960000000     0.481360000000     0.268600000000     0.00146056 
C239     C      0.473580000000     0.501440000000     0.018610000000    -2.1391e-05 
C240     C      0.001460000000     0.001430000000     0.035140000000    -0.112939   
C241     C      0.029340000000     0.001440000000     0.018610000000    -0.000415771
C242     C      0.029350000000     0.001450000000     0.986350000000    -0.000558061
C243     C      0.001460000000     0.001450000000     0.969820000000    -0.112893   
C244     C      0.473580000000     0.501440000000     0.986340000000    -0.000312325
C245     C      0.474260000000     0.392500000000     0.127400000000    -0.000460544
C246     C      0.502130000000     0.408990000000     0.127770000000    -0.106167   
C247     C      0.030020000000     0.392520000000     0.128150000000    -9.28257e-05
C248     C      0.030020000000     0.360300000000     0.128160000000    -9.7875e-05 
C249     C      0.502130000000     0.343830000000     0.127780000000    -0.106151   
C250     C      0.474260000000     0.360320000000     0.127400000000    -0.000458692
C251     C      0.472880000000     0.142520000000     0.128170000000    -0.000251673
C252     C      0.500770000000     0.158990000000     0.127800000000    -0.106187   
C253     C      0.028640000000     0.142490000000     0.127440000000    -0.000216826
C254     C      0.028640000000     0.110330000000     0.127440000000    -0.000346382
C255     C      0.500770000000     0.093830000000     0.127800000000    -0.105987   
C256     C      0.472880000000     0.110300000000     0.128170000000    -0.00037375 
C257     C      0.501970000000     0.943140000000     0.127760000000     0.423917   
C258     C      0.500930000000     0.559680000000     0.127780000000     0.425395   
C259     C      0.001440000000     0.501390000000     0.186040000000     0.418058   
C260     C      0.001460000000     0.501420000000     0.069350000000     0.417893   
C261     C      0.501970000000     0.809680000000     0.127770000000     0.425444   
C262     C      0.500930000000     0.693140000000     0.127780000000     0.425272   
C263     C      0.001460000000     0.751410000000     0.069360000000     0.41782    
C264     C      0.001440000000     0.751410000000     0.186050000000     0.418444   
C265     C      0.251470000000     0.943150000000     0.127760000000     0.423791   
C266     C      0.251330000000     0.559700000000     0.127790000000     0.425028   
C267     C      0.251400000000     0.501440000000     0.069360000000     0.425415   
C268     C      0.251400000000     0.501400000000     0.186050000000     0.425902   
C269     C      0.251400000000     0.751420000000     0.069370000000     0.425414   
C270     C      0.251400000000     0.751420000000     0.186050000000     0.426036   
C271     C      0.251470000000     0.693150000000     0.127790000000     0.425055   
C272     C      0.251330000000     0.809690000000     0.127780000000     0.425245   
C273     C      0.501460000000     0.501450000000     0.935600000000     0.425497   
C274     C      0.501460000000     0.501440000000     0.818920000000     0.426043   
C275     C      0.001990000000     0.559720000000     0.877180000000     0.417339   
C276     C      0.000940000000     0.943170000000     0.877200000000     0.416425   
C277     C      0.501470000000     0.751440000000     0.935610000000     0.425911   
C278     C      0.501460000000     0.751450000000     0.818930000000     0.426072   
C279     C      0.000940000000     0.809720000000     0.877210000000     0.417924   
C280     C      0.001980000000     0.693170000000     0.877190000000     0.417323   
C281     C      0.251350000000     0.943180000000     0.877200000000     0.424041   
C282     C      0.251480000000     0.559730000000     0.877180000000     0.425142   
C283     C      0.251410000000     0.501470000000     0.935610000000     0.425312   
C284     C      0.251420000000     0.501450000000     0.818920000000     0.426042   
C285     C      0.251480000000     0.809730000000     0.877210000000     0.42525    
C286     C      0.251350000000     0.693180000000     0.877190000000     0.425365   
C287     C      0.251410000000     0.751450000000     0.935610000000     0.425482   
C288     C      0.251420000000     0.751470000000     0.818930000000     0.426102   
C289     C      0.001420000000     0.001360000000     0.318920000000     0.419446   
C290     C      0.001410000000     0.001350000000     0.435600000000     0.416795   
C291     C      0.059680000000     0.501290000000     0.377190000000     0.424768   
C292     C      0.443130000000     0.501420000000     0.377180000000     0.425057   
C293     C      0.443120000000     0.750920000000     0.377190000000     0.425223   
C294     C      0.059670000000     0.751970000000     0.377200000000     0.424325   
C295     C      0.001400000000     0.751440000000     0.318930000000     0.427297   
C296     C      0.001390000000     0.751450000000     0.435610000000     0.424425   
C297     C      0.251420000000     0.501350000000     0.435600000000     0.425461   
C298     C      0.251410000000     0.501360000000     0.318920000000     0.42607    
C299     C      0.309680000000     0.001290000000     0.377180000000     0.417841   
C300     C      0.193130000000     0.001420000000     0.377190000000     0.417432   
C301     C      0.251400000000     0.751450000000     0.435610000000     0.425509   
C302     C      0.251390000000     0.751440000000     0.318930000000     0.425703   
C303     C      0.193120000000     0.751970000000     0.377200000000     0.424986   
C304     C      0.309670000000     0.750920000000     0.377200000000     0.425317   
C305     C      0.001420000000     0.001360000000     0.569360000000     0.417053   
C306     C      0.001440000000     0.001390000000     0.686040000000     0.419448   
C307     C      0.059700000000     0.501440000000     0.627760000000     0.424476   
C308     C      0.443150000000     0.501310000000     0.627780000000     0.425046   
C309     C      0.501410000000     0.751470000000     0.569360000000     0.425334   
C310     C      0.501430000000     0.751470000000     0.686050000000     0.425918   
C311     C      0.443150000000     0.751990000000     0.627780000000     0.425292   
C312     C      0.059690000000     0.750950000000     0.627770000000     0.424295   
C313     C      0.251420000000     0.501390000000     0.686050000000     0.425988   
C314     C      0.251430000000     0.501360000000     0.569360000000     0.425801   
C315     C      0.309700000000     0.001440000000     0.627780000000     0.417494   
C316     C      0.193150000000     0.001310000000     0.627770000000     0.417486   
C317     C      0.193150000000     0.750950000000     0.627780000000     0.424953   
C318     C      0.309690000000     0.751990000000     0.627780000000     0.425291   
C319     C      0.251420000000     0.751470000000     0.686050000000     0.426007   
C320     C      0.251420000000     0.751460000000     0.569360000000     0.425389   
C321     C      0.392500000000     0.724280000000     0.627440000000    -0.000469125
C322     C      0.409000000000     0.752150000000     0.627800000000    -0.106139   
C323     C      0.392530000000     0.780040000000     0.628170000000    -0.000240679
C324     C      0.360310000000     0.780040000000     0.628170000000    -0.000234609
C325     C      0.343840000000     0.752150000000     0.627800000000    -0.106134   
C326     C      0.360330000000     0.724280000000     0.627440000000    -0.000472295
C327     C      0.110340000000     0.778660000000     0.627420000000    -0.000556887
C328     C      0.093840000000     0.750790000000     0.627780000000    -0.105851   
C329     C      0.110310000000     0.722900000000     0.628160000000    -0.000429984
C330     C      0.142530000000     0.722900000000     0.628160000000    -0.000302629
C331     C      0.159000000000     0.750790000000     0.627790000000    -0.106046   
C332     C      0.142500000000     0.778660000000     0.627420000000    -0.000445765
C333     C      0.392500000000     0.973470000000     0.627820000000     0.00668171 
C334     C      0.409010000000     0.501320000000     0.627800000000    -0.10622    
C335     C      0.392550000000     0.529230000000     0.627800000000    -0.000340818
C336     C      0.360360000000     0.529290000000     0.627800000000    -0.000424824
C337     C      0.343840000000     0.001430000000     0.627800000000    -0.112481   
C338     C      0.360300000000     0.973520000000     0.627810000000     0.00656587 
C339     C      0.110300000000     0.973520000000     0.627800000000     0.00642484 
C340     C      0.093840000000     0.501430000000     0.627780000000    -0.10604    
C341     C      0.110360000000     0.529280000000     0.627780000000    -0.000425655
C342     C      0.142550000000     0.529230000000     0.627780000000    -0.000332902
C343     C      0.159010000000     0.001320000000     0.627790000000    -0.112505   
C344     C      0.142500000000     0.973470000000     0.627810000000     0.00661955 
C345     C      0.251410000000     0.779340000000     0.486350000000    -0.000239361
C346     C      0.251410000000     0.751450000000     0.469830000000    -0.105904   
C347     C      0.251410000000     0.723570000000     0.486360000000    -0.000260887
C348     C      0.251410000000     0.723580000000     0.518630000000    -0.000112913
C349     C      0.251420000000     0.751460000000     0.535150000000    -0.106087   
C350     C      0.251420000000     0.779340000000     0.518620000000    -5.96188e-05
C351     C      0.251420000000     0.529230000000     0.486350000000    -0.000142104
C352     C      0.251420000000     0.501350000000     0.469820000000    -0.105964   
C353     C      0.251420000000     0.973470000000     0.486350000000     0.00673514 
C354     C      0.251420000000     0.973470000000     0.518620000000     0.00682234 
C355     C      0.251430000000     0.501350000000     0.535140000000    -0.106044   
C356     C      0.251430000000     0.529240000000     0.518610000000    -0.0002203  
C357     C      0.501400000000     0.779340000000     0.486350000000    -0.000152201
C358     C      0.001400000000     0.751460000000     0.469830000000    -0.106553   
C359     C      0.001400000000     0.723580000000     0.486360000000    -0.000703771
C360     C      0.001400000000     0.723580000000     0.518620000000    -0.000752644
C361     C      0.501400000000     0.751460000000     0.535140000000    -0.105955   
C362     C      0.501400000000     0.779340000000     0.518620000000    -0.000179566
C363     C      0.392480000000     0.778630000000     0.377540000000    -0.000379907
C364     C      0.408980000000     0.750770000000     0.377180000000    -0.106255   
C365     C      0.392510000000     0.722870000000     0.376810000000    -0.000299831
C366     C      0.360290000000     0.722870000000     0.376810000000    -0.00029949 
C367     C      0.343810000000     0.750770000000     0.377180000000    -0.106253   
C368     C      0.360310000000     0.778630000000     0.377540000000    -0.000379443
C369     C      0.110290000000     0.780020000000     0.376810000000    -0.000409914
C370     C      0.093810000000     0.752120000000     0.377190000000    -0.105959   
C371     C      0.110310000000     0.724260000000     0.377560000000    -0.000542346
C372     C      0.142480000000     0.724260000000     0.377560000000    -0.000423509
C373     C      0.158980000000     0.752120000000     0.377190000000    -0.106168   
C374     C      0.142510000000     0.780020000000     0.376810000000    -0.000260489
C375     C      0.501400000000     0.529230000000     0.486340000000    -0.000134814
C376     C      0.001410000000     0.001350000000     0.469820000000    -0.112848   
C377     C      0.001410000000     0.973470000000     0.486350000000     0.00626882 
C378     C      0.001410000000     0.973470000000     0.518610000000     0.00612339 
C379     C      0.001410000000     0.001360000000     0.535130000000    -0.112747   
C380     C      0.501420000000     0.529240000000     0.518610000000    -0.00026743 
C381     C      0.392530000000     0.973490000000     0.377160000000     0.00657239 
C382     C      0.408990000000     0.501400000000     0.377160000000    -0.106203   
C383     C      0.392480000000     0.529260000000     0.377160000000    -0.000351069
C384     C      0.360280000000     0.529210000000     0.377160000000    -0.000321623
C385     C      0.343830000000     0.501300000000     0.377160000000    -0.106182   
C386     C      0.360340000000     0.973440000000     0.377150000000     0.00651935 
C387     C      0.110340000000     0.973440000000     0.377160000000     0.00642351 
C388     C      0.093830000000     0.501300000000     0.377170000000    -0.106053   
C389     C      0.110280000000     0.529210000000     0.377170000000    -0.000489596
C390     C      0.142480000000     0.529260000000     0.377160000000    -0.000352052
C391     C      0.158990000000     0.501410000000     0.377170000000    -0.10623    
C392     C      0.142530000000     0.973500000000     0.377170000000     0.00669731 
C393     C      0.271430000000     0.732000000000     0.768620000000     0.00140305 
C394     C      0.251420000000     0.751470000000     0.784970000000    -0.106515   
C395     C      0.231410000000     0.770950000000     0.768620000000     0.00141286 
C396     C      0.231810000000     0.771350000000     0.736360000000     0.00145703 
C397     C      0.251420000000     0.751470000000     0.720010000000    -0.106526   
C398     C      0.271030000000     0.731600000000     0.736360000000     0.00143372 
C399     C      0.231480000000     0.520970000000     0.768610000000     0.00133546 
C400     C      0.251420000000     0.501430000000     0.784960000000    -0.106584   
C401     C      0.271360000000     0.981880000000     0.768630000000     0.0102006  
C402     C      0.270960000000     0.981470000000     0.736360000000     0.0076709  
C403     C      0.251420000000     0.501400000000     0.720000000000    -0.106731   
C404     C      0.231880000000     0.521360000000     0.736340000000     0.00137189 
C405     C      0.279320000000     0.860390000000     0.877180000000     0.000255556
C406     C      0.251470000000     0.843880000000     0.877190000000    -0.106094   
C407     C      0.223550000000     0.860330000000     0.877180000000     0.00015301 
C408     C      0.223500000000     0.892530000000     0.877170000000    -0.000542209
C409     C      0.251360000000     0.909040000000     0.877180000000    -0.104512   
C410     C      0.279270000000     0.892580000000     0.877190000000    -0.00047966 
C411     C      0.223560000000     0.610330000000     0.877160000000    -0.000382293
C412     C      0.251470000000     0.593880000000     0.877160000000    -0.106103   
C413     C      0.279320000000     0.610390000000     0.877150000000    -0.00043607 
C414     C      0.279270000000     0.642580000000     0.877160000000    -0.000344052
C415     C      0.251360000000     0.659040000000     0.877160000000    -0.106324   
C416     C      0.223500000000     0.642530000000     0.877150000000    -0.000332935
C417     C      0.481510000000     0.731910000000     0.768620000000     0.00134818 
C418     C      0.501450000000     0.751460000000     0.784970000000    -0.106484   
C419     C      0.021390000000     0.771010000000     0.768620000000     0.000719424
C420     C      0.020980000000     0.771410000000     0.736350000000     0.00313109 
C421     C      0.501430000000     0.751470000000     0.720010000000    -0.106535   
C422     C      0.481900000000     0.731530000000     0.736350000000     0.00150024 
C423     C      0.481590000000     0.521040000000     0.768610000000     0.00134108 
C424     C      0.001460000000     0.501430000000     0.784960000000    -0.112236   
C425     C      0.021320000000     0.981800000000     0.768620000000     0.00956678 
C426     C      0.020920000000     0.981390000000     0.736350000000     0.00925657 
C427     C      0.001440000000     0.001400000000     0.720000000000    -0.121446   
C428     C      0.481980000000     0.521420000000     0.736340000000     0.00144382 
C429     C      0.028650000000     0.892530000000     0.877550000000    -0.000426534
C430     C      0.000780000000     0.909030000000     0.877190000000    -0.110713   
C431     C      0.472890000000     0.892560000000     0.876810000000    -0.000471445
C432     C      0.472890000000     0.860330000000     0.876820000000     0.000365173
C433     C      0.000780000000     0.843860000000     0.877190000000    -0.112578   
C434     C      0.028650000000     0.860360000000     0.877560000000     0.000445103
C435     C      0.030040000000     0.610340000000     0.876790000000    -0.000169004
C436     C      0.002140000000     0.593860000000     0.877170000000    -0.112506   
C437     C      0.474270000000     0.610360000000     0.877530000000    -0.000503109
C438     C      0.474270000000     0.642530000000     0.877530000000    -0.000502746
C439     C      0.002140000000     0.659030000000     0.877170000000    -0.112495   
C440     C      0.030040000000     0.642560000000     0.876790000000    -0.000164123
C441     C      0.271410000000     0.770900000000     0.236350000000     0.00141156 
C442     C      0.251390000000     0.751430000000     0.220010000000    -0.106508   
C443     C      0.231380000000     0.731960000000     0.236360000000     0.00144405 
C444     C      0.231770000000     0.731570000000     0.268630000000     0.00130513 
C445     C      0.251390000000     0.751440000000     0.284970000000    -0.10638    
C446     C      0.271010000000     0.771300000000     0.268620000000     0.00142974 
C447     C      0.223520000000     0.751430000000     0.018620000000    -0.000142939
C448     C      0.251400000000     0.751420000000     0.035150000000    -0.105797   
C449     C      0.279290000000     0.751420000000     0.018620000000    -0.000165949
C450     C      0.279290000000     0.751440000000     0.986360000000    -0.00010067 
C451     C      0.251410000000     0.751440000000     0.969830000000    -0.105845   
C452     C      0.223520000000     0.751430000000     0.986360000000    -0.000141528
C453     C      0.231460000000     0.981840000000     0.236340000000     0.0101793  
C454     C      0.251400000000     0.501390000000     0.220000000000    -0.106658   
C455     C      0.271350000000     0.520930000000     0.236350000000     0.00132862 
C456     C      0.270950000000     0.521310000000     0.268620000000     0.00140055 
C457     C      0.251410000000     0.501370000000     0.284960000000    -0.106607   
C458     C      0.231860000000     0.981440000000     0.268610000000     0.00766006 
C459     C      0.223520000000     0.501460000000     0.018610000000    -0.000203937
C460     C      0.251400000000     0.501450000000     0.035140000000    -0.105946   
C461     C      0.279280000000     0.001450000000     0.018620000000    -0.000681968
C462     C      0.279290000000     0.001460000000     0.986350000000    -0.000726551
C463     C      0.251410000000     0.501460000000     0.969820000000    -0.106012   
C464     C      0.223520000000     0.501460000000     0.986350000000    -0.000208543
C465     C      0.223540000000     0.892550000000     0.127780000000    -0.00050661 
C466     C      0.251450000000     0.909010000000     0.127780000000    -0.104384   
C467     C      0.279310000000     0.892490000000     0.127800000000    -0.000585041
C468     C      0.279260000000     0.860290000000     0.127790000000     0.000203906
C469     C      0.251350000000     0.843840000000     0.127790000000    -0.106073   
C470     C      0.223490000000     0.860350000000     0.127800000000     0.000176027
C471     C      0.279310000000     0.642490000000     0.127820000000    -0.000524033
C472     C      0.251450000000     0.659000000000     0.127810000000    -0.106      
C473     C      0.223540000000     0.642550000000     0.127810000000    -0.00047906 
C474     C      0.223490000000     0.610350000000     0.127820000000    -0.000362246
C475     C      0.251350000000     0.593840000000     0.127810000000    -0.106259   
C476     C      0.279250000000     0.610300000000     0.127810000000    -0.000171166
C477     C      0.481490000000     0.770970000000     0.236340000000     0.00148164 
C478     C      0.001430000000     0.751420000000     0.220010000000    -0.112342   
C479     C      0.021360000000     0.731880000000     0.236360000000     0.000847859
C480     C      0.020960000000     0.731490000000     0.268630000000     0.003013   
C481     C      0.001410000000     0.751430000000     0.284970000000    -0.115697   
C482     C      0.481870000000     0.771370000000     0.268610000000     0.00140063 
C483     C      0.473580000000     0.751420000000     0.986350000000    -7.48666e-05
C484     C      0.501470000000     0.751430000000     0.969830000000    -0.106054   
C485     C      0.029350000000     0.751420000000     0.986360000000     0.000100825
C486     C      0.029350000000     0.751410000000     0.018620000000     4.51927e-05
C487     C      0.001460000000     0.751410000000     0.035140000000    -0.112142   
C488     C      0.473580000000     0.751410000000     0.018620000000    -0.000167145
C489     C      0.481560000000     0.981760000000     0.236330000000     0.0101645  
C490     C      0.001440000000     0.501380000000     0.220000000000    -0.112237   
C491     C      0.021300000000     0.520990000000     0.236350000000     0.000759689
C492     C      0.020900000000     0.521380000000     0.268620000000     0.00297716 
C493     C      0.001420000000     0.001360000000     0.284960000000    -0.121417   
C494     C      0.481960000000     0.981360000000     0.268600000000     0.00772639 
C495     C      0.473580000000     0.001440000000     0.018610000000    -0.000544247
C496     C      0.001460000000     0.501430000000     0.035140000000    -0.112414   
C497     C      0.029340000000     0.501430000000     0.018610000000     0.000104589
C498     C      0.029350000000     0.501450000000     0.986350000000    -3.56357e-05
C499     C      0.001460000000     0.501450000000     0.969820000000    -0.112369   
C500     C      0.473580000000     0.001440000000     0.986340000000    -0.000834523
C501     C      0.474260000000     0.892490000000     0.127400000000    -0.000713249
C502     C      0.502130000000     0.908990000000     0.127770000000    -0.10435    
C503     C      0.030020000000     0.892520000000     0.128150000000    -0.000320404
C504     C      0.030020000000     0.860300000000     0.128160000000     0.000535663
C505     C      0.502130000000     0.843830000000     0.127780000000    -0.106231   
C506     C      0.474260000000     0.860320000000     0.127400000000     0.000172123
C507     C      0.472880000000     0.642520000000     0.128170000000    -0.000331779
C508     C      0.500770000000     0.658990000000     0.127800000000    -0.106156   
C509     C      0.028640000000     0.642490000000     0.127440000000    -0.000296516
C510     C      0.028640000000     0.610330000000     0.127440000000    -0.000213463
C511     C      0.500770000000     0.593820000000     0.127800000000    -0.106326   
C512     C      0.472880000000     0.610300000000     0.128170000000    -0.000225702
C513     C      0.001970000000     0.443140000000     0.127760000000     0.417627   
C514     C      0.000930000000     0.059680000000     0.127780000000     0.416748   
C515     C      0.501440000000     0.001390000000     0.186040000000     0.427089   
C516     C      0.501460000000     0.001420000000     0.069350000000     0.424784   
C517     C      0.001970000000     0.309680000000     0.127770000000     0.417654   
C518     C      0.000930000000     0.193140000000     0.127780000000     0.417422   
C519     C      0.501460000000     0.251410000000     0.069360000000     0.425382   
C520     C      0.501440000000     0.251420000000     0.186050000000     0.42596    
C521     C      0.751470000000     0.443150000000     0.127760000000     0.424978   
C522     C      0.751330000000     0.059700000000     0.127790000000     0.424306   
C523     C      0.751400000000     0.001440000000     0.069360000000     0.424295   
C524     C      0.751400000000     0.001400000000     0.186050000000     0.427045   
C525     C      0.751400000000     0.251420000000     0.069370000000     0.425389   
C526     C      0.751400000000     0.251420000000     0.186050000000     0.426021   
C527     C      0.751470000000     0.193150000000     0.127790000000     0.425382   
C528     C      0.751330000000     0.309700000000     0.127780000000     0.424991   
C529     C      0.001460000000     0.001450000000     0.935600000000     0.417205   
C530     C      0.001460000000     0.001440000000     0.818920000000     0.419422   
C531     C      0.501990000000     0.059720000000     0.877180000000     0.424317   
C532     C      0.500940000000     0.443170000000     0.877200000000     0.425332   
C533     C      0.001470000000     0.251430000000     0.935610000000     0.417942   
C534     C      0.001460000000     0.251450000000     0.818930000000     0.418263   
C535     C      0.500940000000     0.309720000000     0.877210000000     0.425352   
C536     C      0.501990000000     0.193170000000     0.877190000000     0.424997   
C537     C      0.751350000000     0.443180000000     0.877200000000     0.425352   
C538     C      0.751480000000     0.059730000000     0.877180000000     0.424367   
C539     C      0.751410000000     0.001470000000     0.935610000000     0.424249   
C540     C      0.751420000000     0.001450000000     0.818920000000     0.426877   
C541     C      0.751480000000     0.309730000000     0.877210000000     0.425033   
C542     C      0.751350000000     0.193180000000     0.877190000000     0.42539    
C543     C      0.751410000000     0.251450000000     0.935610000000     0.425454   
C544     C      0.751420000000     0.251470000000     0.818930000000     0.426099   
C545     C      0.501420000000     0.501360000000     0.318920000000     0.426112   
C546     C      0.501400000000     0.501350000000     0.435600000000     0.425468   
C547     C      0.559680000000     0.001290000000     0.377190000000     0.417783   
C548     C      0.943130000000     0.001420000000     0.377180000000     0.416057   
C549     C      0.943120000000     0.250920000000     0.377190000000     0.423588   
C550     C      0.559670000000     0.251970000000     0.377200000000     0.425047   
C551     C      0.501400000000     0.251440000000     0.318930000000     0.426129   
C552     C      0.501390000000     0.251450000000     0.435610000000     0.425516   
C553     C      0.751410000000     0.001350000000     0.435600000000     0.417845   
C554     C      0.751410000000     0.001360000000     0.318920000000     0.418222   
C555     C      0.809680000000     0.501280000000     0.377180000000     0.425612   
C556     C      0.693130000000     0.501420000000     0.377190000000     0.425009   
C557     C      0.751400000000     0.251450000000     0.435610000000     0.425545   
C558     C      0.751390000000     0.251440000000     0.318930000000     0.426413   
C559     C      0.693120000000     0.251970000000     0.377200000000     0.42498    
C560     C      0.809670000000     0.250920000000     0.377200000000     0.425162   
C561     C      0.501420000000     0.501360000000     0.569360000000     0.425721   
C562     C      0.501440000000     0.501390000000     0.686040000000     0.426102   
C563     C      0.559700000000     0.001440000000     0.627760000000     0.417385   
C564     C      0.943150000000     0.001310000000     0.627780000000     0.416129   
C565     C      0.001410000000     0.251470000000     0.569360000000     0.424291   
C566     C      0.001430000000     0.251470000000     0.686050000000     0.427102   
C567     C      0.943150000000     0.251990000000     0.627780000000     0.424038   
C568     C      0.559690000000     0.250950000000     0.627770000000     0.424967   
C569     C      0.751420000000     0.001390000000     0.686050000000     0.418143   
C570     C      0.751430000000     0.001360000000     0.569360000000     0.418228   
C571     C      0.809700000000     0.501440000000     0.627780000000     0.425636   
C572     C      0.693150000000     0.501310000000     0.627770000000     0.425036   
C573     C      0.693150000000     0.250950000000     0.627780000000     0.425303   
C574     C      0.809690000000     0.251990000000     0.627780000000     0.425566   
C575     C      0.751420000000     0.251470000000     0.686050000000     0.426038   
C576     C      0.751420000000     0.251460000000     0.569360000000     0.4258     
C577     C      0.892500000000     0.224280000000     0.627440000000    -0.000675955
C578     C      0.909010000000     0.252150000000     0.627800000000    -0.104437   
C579     C      0.892530000000     0.280040000000     0.628170000000    -0.000447022
C580     C      0.860310000000     0.280040000000     0.628170000000     0.000419772
C581     C      0.843830000000     0.252150000000     0.627800000000    -0.10633    
C582     C      0.860340000000     0.224280000000     0.627440000000     0.000197121
C583     C      0.610330000000     0.278660000000     0.627420000000    -0.000530221
C584     C      0.593840000000     0.250790000000     0.627780000000    -0.106024   
C585     C      0.610310000000     0.222900000000     0.628160000000    -0.000355235
C586     C      0.642530000000     0.222900000000     0.628160000000    -0.000249917
C587     C      0.659000000000     0.250790000000     0.627790000000    -0.106195   
C588     C      0.642510000000     0.278660000000     0.627420000000    -0.000439039
C589     C      0.892500000000     0.473470000000     0.627820000000    -0.000539518
C590     C      0.909010000000     0.001320000000     0.627800000000    -0.110674   
C591     C      0.892550000000     0.029230000000     0.627800000000    -0.000379688
C592     C      0.860360000000     0.029290000000     0.627800000000     0.000368065
C593     C      0.843840000000     0.501430000000     0.627800000000    -0.106378   
C594     C      0.860300000000     0.473520000000     0.627810000000     0.000347446
C595     C      0.610300000000     0.473520000000     0.627800000000    -0.000479129
C596     C      0.593850000000     0.001430000000     0.627780000000    -0.112432   
C597     C      0.610360000000     0.029280000000     0.627780000000    -0.000171229
C598     C      0.642550000000     0.029230000000     0.627780000000    -0.000121719
C599     C      0.659010000000     0.501320000000     0.627790000000    -0.106256   
C600     C      0.642500000000     0.473470000000     0.627810000000    -0.000358054
C601     C      0.751410000000     0.279340000000     0.486350000000    -0.000228589
C602     C      0.751410000000     0.251450000000     0.469830000000    -0.105792   
C603     C      0.751410000000     0.223570000000     0.486360000000    -0.000233797
C604     C      0.751410000000     0.223580000000     0.518630000000     8.84147e-05
C605     C      0.751410000000     0.251460000000     0.535150000000    -0.106183   
C606     C      0.751410000000     0.279340000000     0.518620000000     7.95725e-05
C607     C      0.751420000000     0.029230000000     0.486350000000     3.45329e-05
C608     C      0.751420000000     0.001350000000     0.469820000000    -0.112139   
C609     C      0.751430000000     0.473470000000     0.486350000000    -0.000107518
C610     C      0.751420000000     0.473470000000     0.518620000000    -8.90572e-05
C611     C      0.751430000000     0.001350000000     0.535140000000    -0.112333   
C612     C      0.751430000000     0.029230000000     0.518610000000     0.000186624
C613     C      0.001400000000     0.279340000000     0.486350000000    -0.000684178
C614     C      0.501400000000     0.251460000000     0.469830000000    -0.106002   
C615     C      0.501400000000     0.223580000000     0.486360000000    -0.000157802
C616     C      0.501400000000     0.223580000000     0.518620000000    -0.000202266
C617     C      0.001410000000     0.251460000000     0.535140000000    -0.106492   
C618     C      0.001400000000     0.279340000000     0.518620000000    -0.000709367
C619     C      0.892480000000     0.278630000000     0.377540000000    -0.000670808
C620     C      0.908980000000     0.250770000000     0.377180000000    -0.104325   
C621     C      0.892510000000     0.222870000000     0.376810000000    -0.000524344
C622     C      0.860290000000     0.222870000000     0.376810000000     0.000329104
C623     C      0.843810000000     0.250770000000     0.377180000000    -0.106206   
C624     C      0.860310000000     0.278630000000     0.377540000000     0.000197778
C625     C      0.610290000000     0.280020000000     0.376810000000    -0.000325174
C626     C      0.593810000000     0.252120000000     0.377190000000    -0.106175   
C627     C      0.610310000000     0.224260000000     0.377560000000    -0.000444453
C628     C      0.642480000000     0.224260000000     0.377560000000    -0.000460167
C629     C      0.658980000000     0.252120000000     0.377190000000    -0.106169   
C630     C      0.642510000000     0.280020000000     0.376810000000    -0.00032171 
C631     C      0.001400000000     0.029230000000     0.486340000000    -0.000440156
C632     C      0.501410000000     0.501350000000     0.469820000000    -0.106028   
C633     C      0.501410000000     0.473470000000     0.486350000000    -0.00012551 
C634     C      0.501410000000     0.473470000000     0.518610000000    -0.000276641
C635     C      0.501410000000     0.501360000000     0.535130000000    -0.105923   
C636     C      0.001420000000     0.029240000000     0.518610000000    -0.00056852 
C637     C      0.892530000000     0.473490000000     0.377160000000    -0.000606237
C638     C      0.908990000000     0.001400000000     0.377160000000    -0.110691   
C639     C      0.892480000000     0.029260000000     0.377160000000    -0.00035088 
C640     C      0.860280000000     0.029210000000     0.377160000000     0.000536461
C641     C      0.843830000000     0.001300000000     0.377160000000    -0.112524   
C642     C      0.860340000000     0.473440000000     0.377150000000     0.000185701
C643     C      0.610340000000     0.473450000000     0.377160000000    -0.000313942
C644     C      0.593830000000     0.001300000000     0.377170000000    -0.11246    
C645     C      0.610280000000     0.029210000000     0.377170000000    -0.000226905
C646     C      0.642480000000     0.029260000000     0.377160000000    -0.000155327
C647     C      0.658990000000     0.001410000000     0.377170000000    -0.112594   
C648     C      0.642540000000     0.473500000000     0.377170000000    -0.000368885
C649     C      0.771430000000     0.232000000000     0.768620000000     0.0014524  
C650     C      0.751420000000     0.251470000000     0.784970000000    -0.106524   
C651     C      0.731410000000     0.270950000000     0.768620000000     0.00137975 
C652     C      0.731810000000     0.271350000000     0.736360000000     0.00145908 
C653     C      0.751420000000     0.251480000000     0.720010000000    -0.106517   
C654     C      0.771030000000     0.231600000000     0.736360000000     0.00143519 
C655     C      0.731480000000     0.020970000000     0.768610000000     0.00287957 
C656     C      0.751420000000     0.001430000000     0.784960000000    -0.115621   
C657     C      0.771360000000     0.481880000000     0.768630000000     0.00127968 
C658     C      0.770960000000     0.481470000000     0.736360000000     0.00150739 
C659     C      0.751420000000     0.001410000000     0.720000000000    -0.112415   
C660     C      0.731880000000     0.021360000000     0.736340000000     0.000749633
C661     C      0.779320000000     0.360390000000     0.877180000000    -0.000360056
C662     C      0.751470000000     0.343880000000     0.877190000000    -0.106015   
C663     C      0.723550000000     0.360330000000     0.877180000000    -0.0005002  
C664     C      0.723500000000     0.392530000000     0.877170000000    -0.000343507
C665     C      0.751360000000     0.409040000000     0.877180000000    -0.106314   
C666     C      0.779270000000     0.392590000000     0.877190000000    -0.000217044
C667     C      0.723560000000     0.110330000000     0.877160000000    -0.000488444
C668     C      0.751470000000     0.093880000000     0.877160000000    -0.105891   
C669     C      0.779320000000     0.110390000000     0.877150000000    -0.0005258  
C670     C      0.779270000000     0.142580000000     0.877160000000    -0.000281365
C671     C      0.751360000000     0.159040000000     0.877160000000    -0.106335   
C672     C      0.723500000000     0.142530000000     0.877150000000    -0.000294987
C673     C      0.981510000000     0.231920000000     0.768620000000     0.00776094 
C674     C      0.001450000000     0.251460000000     0.784970000000    -0.112266   
C675     C      0.521390000000     0.271010000000     0.768620000000     0.00143273 
C676     C      0.520990000000     0.271410000000     0.736350000000     0.00133149 
C677     C      0.001440000000     0.251470000000     0.720010000000    -0.115673   
C678     C      0.981890000000     0.231520000000     0.736350000000     0.0101207  
C679     C      0.981590000000     0.021040000000     0.768610000000     0.00921775 
C680     C      0.501460000000     0.001430000000     0.784960000000    -0.115756   
C681     C      0.521320000000     0.481800000000     0.768620000000     0.00134146 
C682     C      0.520920000000     0.481400000000     0.736350000000     0.00144094 
C683     C      0.501440000000     0.501400000000     0.720000000000    -0.106625   
C684     C      0.981980000000     0.021420000000     0.736340000000     0.00957982 
C685     C      0.528650000000     0.392530000000     0.877550000000    -0.000411817
C686     C      0.500790000000     0.409030000000     0.877190000000    -0.106297   
C687     C      0.972890000000     0.392560000000     0.876810000000     0.00673427 
C688     C      0.972890000000     0.360330000000     0.876820000000     0.00672593 
C689     C      0.500790000000     0.343860000000     0.877190000000    -0.106286   
C690     C      0.528650000000     0.360360000000     0.877560000000    -0.000406221
C691     C      0.530040000000     0.110330000000     0.876790000000    -0.000433006
C692     C      0.502140000000     0.093860000000     0.877170000000    -0.105962   
C693     C      0.974270000000     0.110360000000     0.877530000000     0.00631081 
C694     C      0.974270000000     0.142530000000     0.877530000000     0.00642201 
C695     C      0.502140000000     0.159030000000     0.877170000000    -0.106165   
C696     C      0.530040000000     0.142560000000     0.876790000000    -0.000309639
C697     C      0.771410000000     0.270900000000     0.236350000000     0.00135092 
C698     C      0.751390000000     0.251430000000     0.220010000000    -0.106466   
C699     C      0.731380000000     0.231960000000     0.236360000000     0.0013786  
C700     C      0.731770000000     0.231570000000     0.268630000000     0.00144403 
C701     C      0.751390000000     0.251440000000     0.284970000000    -0.106666   
C702     C      0.771010000000     0.271300000000     0.268620000000     0.00156633 
C703     C      0.723520000000     0.251430000000     0.018620000000    -0.000226107
C704     C      0.751400000000     0.251420000000     0.035150000000    -0.105878   
C705     C      0.779290000000     0.251420000000     0.018620000000    -0.00022166 
C706     C      0.779290000000     0.251440000000     0.986360000000    -0.000155543
C707     C      0.751410000000     0.251440000000     0.969830000000    -0.105925   
C708     C      0.723520000000     0.251430000000     0.986360000000    -0.000227406
C709     C      0.731460000000     0.481840000000     0.236340000000     0.00136442 
C710     C      0.751400000000     0.001390000000     0.220000000000    -0.115812   
C711     C      0.771350000000     0.020930000000     0.236350000000     0.00296272 
C712     C      0.770950000000     0.021310000000     0.268620000000     0.000767885
C713     C      0.751410000000     0.001370000000     0.284960000000    -0.112312   
C714     C      0.731860000000     0.481430000000     0.268610000000     0.00131801 
C715     C      0.723520000000     0.001460000000     0.018610000000    -0.000780053
C716     C      0.751400000000     0.001450000000     0.035140000000    -0.106437   
C717     C      0.779290000000     0.501450000000     0.018620000000    -0.000252677
C718     C      0.779290000000     0.501460000000     0.986350000000    -0.000147619
C719     C      0.751410000000     0.001460000000     0.969820000000    -0.106593   
C720     C      0.723520000000     0.001460000000     0.986350000000    -0.000727862
C721     C      0.723540000000     0.392550000000     0.127780000000    -0.000368036
C722     C      0.751450000000     0.409000000000     0.127780000000    -0.106038   
C723     C      0.779310000000     0.392490000000     0.127800000000    -0.000445517
C724     C      0.779260000000     0.360290000000     0.127790000000    -0.000331491
C725     C      0.751350000000     0.343840000000     0.127790000000    -0.106148   
C726     C      0.723490000000     0.360350000000     0.127800000000    -0.000381744
C727     C      0.779310000000     0.142490000000     0.127820000000    -0.000325107
C728     C      0.751450000000     0.159000000000     0.127810000000    -0.106175   
C729     C      0.723540000000     0.142550000000     0.127810000000    -0.000367967
C730     C      0.723490000000     0.110350000000     0.127820000000    -0.000535983
C731     C      0.751350000000     0.093840000000     0.127810000000    -0.105972   
C732     C      0.779260000000     0.110300000000     0.127810000000    -0.00037201 
C733     C      0.981480000000     0.270970000000     0.236340000000     0.00770492 
C734     C      0.501430000000     0.251420000000     0.220010000000    -0.106568   
C735     C      0.521360000000     0.231880000000     0.236360000000     0.00146416 
C736     C      0.520960000000     0.231490000000     0.268630000000     0.0013893  
C737     C      0.501410000000     0.251430000000     0.284970000000    -0.106531   
C738     C      0.981870000000     0.271370000000     0.268610000000     0.0102114  
C739     C      0.973580000000     0.251420000000     0.986350000000     0.00671082 
C740     C      0.001470000000     0.251430000000     0.969830000000    -0.112249   
C741     C      0.529350000000     0.251420000000     0.986360000000    -0.000106296
C742     C      0.529350000000     0.251420000000     0.018620000000    -0.000277586
C743     C      0.501460000000     0.251410000000     0.035140000000    -0.105902   
C744     C      0.973580000000     0.251410000000     0.018620000000     0.00673309 
C745     C      0.981560000000     0.481760000000     0.236330000000     0.00758929 
C746     C      0.501440000000     0.001380000000     0.220000000000    -0.115724   
C747     C      0.521300000000     0.020990000000     0.236350000000     0.0030175  
C748     C      0.520900000000     0.021380000000     0.268620000000     0.00070964 
C749     C      0.501430000000     0.501360000000     0.284960000000    -0.106612   
C750     C      0.981950000000     0.481360000000     0.268600000000     0.0102603  
C751     C      0.973580000000     0.501440000000     0.018610000000     0.00678759 
C752     C      0.501460000000     0.001430000000     0.035140000000    -0.106855   
C753     C      0.529340000000     0.001440000000     0.018610000000    -0.000529972
C754     C      0.529350000000     0.001450000000     0.986350000000    -0.000885116
C755     C      0.501460000000     0.001450000000     0.969820000000    -0.10645    
C756     C      0.973580000000     0.501440000000     0.986340000000     0.00672338 
C757     C      0.974260000000     0.392500000000     0.127400000000     0.00643396 
C758     C      0.002130000000     0.408990000000     0.127770000000    -0.112504   
C759     C      0.530020000000     0.392520000000     0.128150000000    -0.0002738  
C760     C      0.530020000000     0.360300000000     0.128160000000    -0.000282782
C761     C      0.002130000000     0.343830000000     0.127780000000    -0.112494   
C762     C      0.974260000000     0.360320000000     0.127400000000     0.00643943 
C763     C      0.972880000000     0.142520000000     0.128170000000     0.0066927  
C764     C      0.000770000000     0.158990000000     0.127800000000    -0.112305   
C765     C      0.528640000000     0.142490000000     0.127440000000    -0.00044363 
C766     C      0.528640000000     0.110330000000     0.127440000000    -0.000569612
C767     C      0.000770000000     0.093830000000     0.127800000000    -0.112098   
C768     C      0.972880000000     0.110300000000     0.128170000000     0.00656329 
C769     C      0.001970000000     0.943140000000     0.127760000000     0.416281   
C770     C      0.000930000000     0.559680000000     0.127780000000     0.417486   
C771     C      0.501440000000     0.501390000000     0.186040000000     0.425901   
C772     C      0.501460000000     0.501420000000     0.069350000000     0.425854   
C773     C      0.001970000000     0.809680000000     0.127770000000     0.417804   
C774     C      0.000930000000     0.693140000000     0.127780000000     0.417381   
C775     C      0.501460000000     0.751410000000     0.069360000000     0.425403   
C776     C      0.501440000000     0.751410000000     0.186050000000     0.425939   
C777     C      0.751470000000     0.943150000000     0.127760000000     0.423767   
C778     C      0.751330000000     0.559700000000     0.127790000000     0.424975   
C779     C      0.751400000000     0.501440000000     0.069360000000     0.42537    
C780     C      0.751400000000     0.501400000000     0.186050000000     0.425877   
C781     C      0.751400000000     0.751420000000     0.069370000000     0.425394   
C782     C      0.751400000000     0.751420000000     0.186050000000     0.426019   
C783     C      0.751470000000     0.693150000000     0.127790000000     0.425392   
C784     C      0.751330000000     0.809690000000     0.127780000000     0.425224   
C785     C      0.001460000000     0.501450000000     0.935600000000     0.418252   
C786     C      0.001460000000     0.501440000000     0.818920000000     0.418206   
C787     C      0.501990000000     0.559720000000     0.877180000000     0.424971   
C788     C      0.500940000000     0.943170000000     0.877200000000     0.423963   
C789     C      0.001470000000     0.751440000000     0.935610000000     0.417963   
C790     C      0.001460000000     0.751450000000     0.818930000000     0.418235   
C791     C      0.500940000000     0.809720000000     0.877210000000     0.425493   
C792     C      0.501990000000     0.693170000000     0.877190000000     0.424966   
C793     C      0.751350000000     0.943180000000     0.877200000000     0.42401    
C794     C      0.751480000000     0.559730000000     0.877180000000     0.425112   
C795     C      0.751410000000     0.501470000000     0.935610000000     0.425289   
C796     C      0.751420000000     0.501450000000     0.818920000000     0.42566    
C797     C      0.751480000000     0.809730000000     0.877210000000     0.425227   
C798     C      0.751350000000     0.693180000000     0.877190000000     0.425339   
C799     C      0.751410000000     0.751450000000     0.935610000000     0.425455   
C800     C      0.751420000000     0.751470000000     0.818930000000     0.426079   
C801     C      0.501420000000     0.001360000000     0.318920000000     0.418267   
C802     C      0.501400000000     0.001350000000     0.435600000000     0.417856   
C803     C      0.559680000000     0.501290000000     0.377190000000     0.425384   
C804     C      0.943130000000     0.501420000000     0.377180000000     0.423678   
C805     C      0.943120000000     0.750920000000     0.377190000000     0.423902   
C806     C      0.559670000000     0.751970000000     0.377200000000     0.425029   
C807     C      0.501400000000     0.751440000000     0.318930000000     0.426112   
C808     C      0.501390000000     0.751450000000     0.435610000000     0.425496   
C809     C      0.751410000000     0.501350000000     0.435600000000     0.425467   
C810     C      0.751410000000     0.501360000000     0.318920000000     0.426049   
C811     C      0.809680000000     0.001290000000     0.377180000000     0.418038   
C812     C      0.693130000000     0.001420000000     0.377190000000     0.417383   
C813     C      0.751400000000     0.751450000000     0.435610000000     0.425527   
C814     C      0.751390000000     0.751440000000     0.318930000000     0.425683   
C815     C      0.693120000000     0.751970000000     0.377200000000     0.424949   
C816     C      0.809670000000     0.750920000000     0.377200000000     0.425465   
C817     C      0.501420000000     0.001360000000     0.569360000000     0.4181     
C818     C      0.501440000000     0.001390000000     0.686040000000     0.418239   
C819     C      0.559700000000     0.501440000000     0.627760000000     0.425032   
C820     C      0.943150000000     0.501310000000     0.627780000000     0.423676   
C821     C      0.001410000000     0.751470000000     0.569360000000     0.424264   
C822     C      0.001430000000     0.751470000000     0.686050000000     0.427104   
C823     C      0.943150000000     0.751990000000     0.627780000000     0.424015   
C824     C      0.559690000000     0.750950000000     0.627770000000     0.424951   
C825     C      0.751420000000     0.501390000000     0.686050000000     0.42599    
C826     C      0.751430000000     0.501360000000     0.569360000000     0.425821   
C827     C      0.809700000000     0.001440000000     0.627780000000     0.417646   
C828     C      0.693150000000     0.001310000000     0.627770000000     0.41746    
C829     C      0.693150000000     0.750950000000     0.627780000000     0.42492    
C830     C      0.809690000000     0.751990000000     0.627780000000     0.425531   
C831     C      0.751420000000     0.751470000000     0.686050000000     0.426002   
C832     C      0.751420000000     0.751460000000     0.569360000000     0.425409   
C833     C      0.892500000000     0.724280000000     0.627440000000    -0.000693724
C834     C      0.909010000000     0.752150000000     0.627800000000    -0.104435   
C835     C      0.892530000000     0.780040000000     0.628170000000    -0.000430822
C836     C      0.860310000000     0.780040000000     0.628170000000     0.00043257 
C837     C      0.843830000000     0.752150000000     0.627800000000    -0.106322   
C838     C      0.860340000000     0.724280000000     0.627440000000     0.000175237
C839     C      0.610330000000     0.778660000000     0.627420000000    -0.0004812  
C840     C      0.593840000000     0.750790000000     0.627780000000    -0.106053   
C841     C      0.610310000000     0.722900000000     0.628160000000    -0.000337683
C842     C      0.642530000000     0.722900000000     0.628160000000    -0.000344023
C843     C      0.659000000000     0.750790000000     0.627790000000    -0.106043   
C844     C      0.642510000000     0.778660000000     0.627420000000    -0.00049869 
C845     C      0.892500000000     0.973470000000     0.627820000000     0.00643511 
C846     C      0.909010000000     0.501320000000     0.627800000000    -0.104394   
C847     C      0.892550000000     0.529230000000     0.627800000000    -0.000595645
C848     C      0.860360000000     0.529290000000     0.627800000000     0.000202075
C849     C      0.843840000000     0.001430000000     0.627800000000    -0.112548   
C850     C      0.860300000000     0.973520000000     0.627810000000     0.00719796 
C851     C      0.610300000000     0.973520000000     0.627800000000     0.00645366 
C852     C      0.593850000000     0.501430000000     0.627780000000    -0.106106   
C853     C      0.610360000000     0.529280000000     0.627780000000    -0.000392363
C854     C      0.642550000000     0.529230000000     0.627780000000    -0.000343088
C855     C      0.659010000000     0.001320000000     0.627790000000    -0.112529   
C856     C      0.642500000000     0.973470000000     0.627810000000     0.00659734 
C857     C      0.751410000000     0.779340000000     0.486350000000    -0.000176655
C858     C      0.751410000000     0.751450000000     0.469830000000    -0.105833   
C859     C      0.751410000000     0.723570000000     0.486360000000    -0.000198183
C860     C      0.751410000000     0.723580000000     0.518630000000    -5.00211e-05
C861     C      0.751410000000     0.751460000000     0.535150000000    -0.106017   
C862     C      0.751410000000     0.779340000000     0.518620000000     3.12895e-06
C863     C      0.751420000000     0.529230000000     0.486350000000    -8.07077e-05
C864     C      0.751420000000     0.501350000000     0.469820000000    -0.10589    
C865     C      0.751430000000     0.973470000000     0.486350000000     0.00679107 
C866     C      0.751420000000     0.973470000000     0.518620000000     0.00688207 
C867     C      0.751430000000     0.501350000000     0.535140000000    -0.105974   
C868     C      0.751430000000     0.529240000000     0.518610000000    -0.000156445
C869     C      0.001400000000     0.779340000000     0.486350000000    -0.000677126
C870     C      0.501400000000     0.751460000000     0.469830000000    -0.10601    
C871     C      0.501400000000     0.723580000000     0.486360000000    -0.000179961
C872     C      0.501400000000     0.723580000000     0.518620000000    -0.000226393
C873     C      0.001410000000     0.751460000000     0.535140000000    -0.106497   
C874     C      0.001400000000     0.779340000000     0.518620000000    -0.000704358
C875     C      0.892480000000     0.778630000000     0.377540000000    -0.000624051
C876     C      0.908980000000     0.750770000000     0.377180000000    -0.104451   
C877     C      0.892510000000     0.722870000000     0.376810000000    -0.000511265
C878     C      0.860290000000     0.722870000000     0.376810000000     0.00033833 
C879     C      0.843810000000     0.750770000000     0.377180000000    -0.106324   
C880     C      0.860310000000     0.778630000000     0.377540000000     0.000239605
C881     C      0.610290000000     0.780020000000     0.376810000000    -0.000308541
C882     C      0.593810000000     0.752120000000     0.377190000000    -0.106174   
C883     C      0.610310000000     0.724260000000     0.377560000000    -0.000461897
C884     C      0.642480000000     0.724260000000     0.377560000000    -0.000481351
C885     C      0.658980000000     0.752120000000     0.377190000000    -0.106163   
C886     C      0.642510000000     0.780020000000     0.376810000000    -0.00030785 
C887     C      0.001400000000     0.529230000000     0.486340000000    -0.000662159
C888     C      0.501410000000     0.001350000000     0.469820000000    -0.112328   
C889     C      0.501410000000     0.973470000000     0.486350000000     0.00681206 
C890     C      0.501410000000     0.973470000000     0.518610000000     0.00665833 
C891     C      0.501410000000     0.001360000000     0.535130000000    -0.112219   
C892     C      0.001420000000     0.529240000000     0.518610000000    -0.000789888
C893     C      0.892530000000     0.973490000000     0.377160000000     0.00629964 
C894     C      0.908990000000     0.501400000000     0.377160000000    -0.104376   
C895     C      0.892480000000     0.529260000000     0.377160000000    -0.000571383
C896     C      0.860280000000     0.529210000000     0.377160000000     0.000322422
C897     C      0.843830000000     0.501300000000     0.377160000000    -0.106261   
C898     C      0.860340000000     0.973440000000     0.377150000000     0.00713986 
C899     C      0.610340000000     0.973440000000     0.377160000000     0.00651725 
C900     C      0.593830000000     0.501300000000     0.377170000000    -0.106251   
C901     C      0.610280000000     0.529210000000     0.377170000000    -0.000414737
C902     C      0.642480000000     0.529260000000     0.377160000000    -0.000407041
C903     C      0.658990000000     0.501410000000     0.377170000000    -0.106224   
C904     C      0.642540000000     0.973500000000     0.377170000000     0.00666484 
C905     C      0.771430000000     0.732000000000     0.768620000000     0.00143776 
C906     C      0.751420000000     0.751470000000     0.784970000000    -0.106497   
C907     C      0.731410000000     0.770950000000     0.768620000000     0.00141339 
C908     C      0.731810000000     0.771350000000     0.736360000000     0.0014593  
C909     C      0.751420000000     0.751470000000     0.720010000000    -0.106498   
C910     C      0.771030000000     0.731600000000     0.736360000000     0.00145991 
C911     C      0.731480000000     0.520970000000     0.768610000000     0.00125742 
C912     C      0.751420000000     0.501430000000     0.784960000000    -0.106417   
C913     C      0.771360000000     0.981880000000     0.768630000000     0.0101516  
C914     C      0.770960000000     0.981470000000     0.736360000000     0.00772663 
C915     C      0.751420000000     0.501400000000     0.720000000000    -0.106737   
C916     C      0.731880000000     0.521360000000     0.736340000000     0.00140518 
C917     C      0.779320000000     0.860390000000     0.877180000000     0.00027364 
C918     C      0.751470000000     0.843880000000     0.877190000000    -0.106091   
C919     C      0.723550000000     0.860330000000     0.877180000000     0.00013162 
C920     C      0.723500000000     0.892530000000     0.877170000000    -0.000564929
C921     C      0.751360000000     0.909040000000     0.877180000000    -0.104509   
C922     C      0.779270000000     0.892580000000     0.877190000000    -0.000463529
C923     C      0.723560000000     0.610330000000     0.877160000000    -0.000401845
C924     C      0.751470000000     0.593880000000     0.877160000000    -0.1061     
C925     C      0.779320000000     0.610390000000     0.877150000000    -0.000428748
C926     C      0.779270000000     0.642580000000     0.877160000000    -0.000335037
C927     C      0.751360000000     0.659040000000     0.877160000000    -0.106326   
C928     C      0.723500000000     0.642530000000     0.877150000000    -0.000350228
C929     C      0.981510000000     0.731910000000     0.768620000000     0.00762371 
C930     C      0.001450000000     0.751460000000     0.784970000000    -0.112171   
C931     C      0.521390000000     0.771010000000     0.768620000000     0.00141643 
C932     C      0.520990000000     0.771410000000     0.736350000000     0.00140435 
C933     C      0.001440000000     0.751470000000     0.720010000000    -0.115727   
C934     C      0.981890000000     0.731530000000     0.736350000000     0.0102569  
C935     C      0.981590000000     0.521040000000     0.768610000000     0.00759023 
C936     C      0.501460000000     0.501430000000     0.784960000000    -0.10654    
C937     C      0.521320000000     0.981800000000     0.768620000000     0.0102418  
C938     C      0.520920000000     0.981390000000     0.736350000000     0.00763052 
C939     C      0.501440000000     0.001400000000     0.720000000000    -0.112278   
C940     C      0.981980000000     0.521420000000     0.736340000000     0.0102928  
C941     C      0.528650000000     0.892530000000     0.877550000000    -0.000659523
C942     C      0.500790000000     0.909030000000     0.877190000000    -0.104484   
C943     C      0.972890000000     0.892560000000     0.876810000000     0.00649558 
C944     C      0.972890000000     0.860330000000     0.876820000000     0.00733721 
C945     C      0.500790000000     0.843860000000     0.877190000000    -0.106356   
C946     C      0.528650000000     0.860360000000     0.877560000000     0.000218222
C947     C      0.530040000000     0.610340000000     0.876790000000    -0.000347677
C948     C      0.502140000000     0.593860000000     0.877170000000    -0.106163   
C949     C      0.974270000000     0.610360000000     0.877530000000     0.00639518 
C950     C      0.974270000000     0.642530000000     0.877530000000     0.00637533 
C951     C      0.502140000000     0.659030000000     0.877170000000    -0.106161   
C952     C      0.530040000000     0.642560000000     0.876790000000    -0.000354256
C953     C      0.771410000000     0.770900000000     0.236350000000     0.00144747 
C954     C      0.751390000000     0.751430000000     0.220010000000    -0.106494   
C955     C      0.731380000000     0.731960000000     0.236360000000     0.0014485  
C956     C      0.731770000000     0.731570000000     0.268630000000     0.00129965 
C957     C      0.751390000000     0.751440000000     0.284970000000    -0.106346   
C958     C      0.771010000000     0.771300000000     0.268620000000     0.00145433 
C959     C      0.723520000000     0.751430000000     0.018620000000    -0.000166658
C960     C      0.751400000000     0.751420000000     0.035150000000    -0.105805   
C961     C      0.779290000000     0.751420000000     0.018620000000    -0.00016055 
C962     C      0.779290000000     0.751440000000     0.986360000000    -9.70163e-05
C963     C      0.751410000000     0.751440000000     0.969830000000    -0.10585    
C964     C      0.723520000000     0.751430000000     0.986360000000    -0.000167066
C965     C      0.731460000000     0.981840000000     0.236340000000     0.0101704  
C966     C      0.751400000000     0.501390000000     0.220000000000    -0.106646   
C967     C      0.771350000000     0.520930000000     0.236350000000     0.00135905 
C968     C      0.770950000000     0.521310000000     0.268620000000     0.00142161 
C969     C      0.751410000000     0.501370000000     0.284960000000    -0.106581   
C970     C      0.731860000000     0.981440000000     0.268610000000     0.00764854 
C971     C      0.723520000000     0.501460000000     0.018610000000    -0.000255075
C972     C      0.751400000000     0.501450000000     0.035140000000    -0.105899   
C973     C      0.779290000000     0.001450000000     0.018620000000    -0.000777609
C974     C      0.779290000000     0.001460000000     0.986350000000    -0.000664966
C975     C      0.751410000000     0.501460000000     0.969820000000    -0.106042   
C976     C      0.723520000000     0.501460000000     0.986350000000    -0.000211886
C977     C      0.723540000000     0.892550000000     0.127780000000    -0.000525578
C978     C      0.751450000000     0.909010000000     0.127780000000    -0.104384   
C979     C      0.779310000000     0.892490000000     0.127800000000    -0.000577088
C980     C      0.779260000000     0.860290000000     0.127790000000     0.000212819
C981     C      0.751350000000     0.843840000000     0.127790000000    -0.106077   
C982     C      0.723490000000     0.860350000000     0.127800000000     0.000158592
C983     C      0.779310000000     0.642490000000     0.127820000000    -0.000375745
C984     C      0.751450000000     0.659000000000     0.127810000000    -0.106173   
C985     C      0.723540000000     0.642550000000     0.127810000000    -0.000409634
C986     C      0.723490000000     0.610350000000     0.127820000000    -0.000447489
C987     C      0.751350000000     0.593840000000     0.127810000000    -0.106177   
C988     C      0.779260000000     0.610300000000     0.127810000000    -0.000291794
C989     C      0.981480000000     0.770970000000     0.236340000000     0.00772721 
C990     C      0.501430000000     0.751420000000     0.220010000000    -0.106537   
C991     C      0.521360000000     0.731880000000     0.236360000000     0.00145091 
C992     C      0.520960000000     0.731490000000     0.268630000000     0.00139389 
C993     C      0.501410000000     0.751430000000     0.284970000000    -0.10652    
C994     C      0.981870000000     0.771370000000     0.268610000000     0.0102365  
C995     C      0.973580000000     0.751420000000     0.986350000000     0.00676724 
C996     C      0.001470000000     0.751430000000     0.969830000000    -0.112177   
C997     C      0.529350000000     0.751420000000     0.986360000000    -4.53202e-05
C998     C      0.529350000000     0.751410000000     0.018620000000    -0.000216141
C999     C      0.501460000000     0.751410000000     0.035140000000    -0.105833   
C1000    C      0.973580000000     0.751410000000     0.018620000000     0.0067901  
C1001    C      0.981560000000     0.981760000000     0.236330000000     0.0163996  
C1002    C      0.501440000000     0.501380000000     0.220000000000    -0.106527   
C1003    C      0.521300000000     0.520990000000     0.236350000000     0.00138993 
C1004    C      0.520900000000     0.521380000000     0.268620000000     0.00138549 
C1005    C      0.501430000000     0.001360000000     0.284960000000    -0.112308   
C1006    C      0.981950000000     0.981360000000     0.268600000000     0.0164801  
C1007    C      0.973580000000     0.001440000000     0.018610000000     0.0062509  
C1008    C      0.501460000000     0.501430000000     0.035140000000    -0.106312   
C1009    C      0.529340000000     0.501430000000     0.018610000000    -8.62144e-06
C1010    C      0.529350000000     0.501450000000     0.986350000000    -0.000361831
C1011    C      0.501460000000     0.501450000000     0.969820000000    -0.105908   
C1012    C      0.973580000000     0.001440000000     0.986340000000     0.00618715 
C1013    C      0.974260000000     0.892490000000     0.127400000000     0.00615723 
C1014    C      0.002130000000     0.908990000000     0.127770000000    -0.110675   
C1015    C      0.530020000000     0.892520000000     0.128150000000    -0.000499128
C1016    C      0.530020000000     0.860300000000     0.128160000000     0.000350941
C1017    C      0.002130000000     0.843830000000     0.127780000000    -0.112565   
C1018    C      0.974260000000     0.860320000000     0.127400000000     0.00705892 
C1019    C      0.972880000000     0.642520000000     0.128170000000     0.00661733 
C1020    C      0.000770000000     0.658990000000     0.127800000000    -0.112283   
C1021    C      0.528640000000     0.642490000000     0.127440000000    -0.000526041
C1022    C      0.528640000000     0.610330000000     0.127440000000    -0.000431155
C1023    C      0.000770000000     0.593820000000     0.127800000000    -0.112437   
C1024    C      0.972880000000     0.610300000000     0.128170000000     0.0067134  
H1       H      0.404400000000     0.202350000000     0.627150000000     0.0384095  
H2       H      0.404490000000     0.301940000000     0.628460000000     0.0387087  
H3       H      0.348350000000     0.301940000000     0.628460000000     0.0386741  
H4       H      0.348440000000     0.202350000000     0.627150000000     0.0384514  
H5       H      0.098440000000     0.300590000000     0.627130000000     0.0383724  
H6       H      0.098350000000     0.201000000000     0.628450000000     0.0385502  
H7       H      0.154490000000     0.201000000000     0.628460000000     0.0385758  
H8       H      0.154400000000     0.300590000000     0.627130000000     0.0384404  
H9       H      0.404410000000     0.451540000000     0.627820000000     0.0387022  
H10      H      0.404510000000     0.051130000000     0.627790000000     0.0381479  
H11      H      0.348450000000     0.051210000000     0.627800000000     0.0382318  
H12      H      0.348350000000     0.451620000000     0.627810000000     0.0386337  
H13      H      0.098350000000     0.451620000000     0.627800000000     0.0383249  
H14      H      0.098450000000     0.051210000000     0.627770000000     0.0382768  
H15      H      0.154510000000     0.051130000000     0.627770000000     0.0383429  
H16      H      0.154410000000     0.451540000000     0.627810000000     0.0384369  
H17      H      0.251410000000     0.301250000000     0.474400000000     0.0385953  
H18      H      0.251410000000     0.201660000000     0.474410000000     0.0385638  
H19      H      0.251410000000     0.201660000000     0.530580000000     0.0384711  
H20      H      0.251420000000     0.301260000000     0.530570000000     0.0385046  
H21      H      0.251420000000     0.051140000000     0.474390000000     0.0383123  
H22      H      0.251420000000     0.451550000000     0.474400000000     0.0385432  
H23      H      0.251420000000     0.451560000000     0.530570000000     0.0385359  
H24      H      0.251430000000     0.051150000000     0.530560000000     0.0382666  
H25      H      0.501400000000     0.301250000000     0.474390000000     0.0385352  
H26      H      0.001390000000     0.201660000000     0.474400000000     0.0377037  
H27      H      0.001410000000     0.201670000000     0.530580000000     0.03771    
H28      H      0.501400000000     0.301260000000     0.530570000000     0.0385331  
H29      H      0.404380000000     0.300560000000     0.377820000000     0.0384356  
H30      H      0.404470000000     0.200980000000     0.376520000000     0.0386963  
H31      H      0.348330000000     0.200980000000     0.376520000000     0.0386678  
H32      H      0.348410000000     0.300560000000     0.377830000000     0.038481   
H33      H      0.098330000000     0.301910000000     0.376520000000     0.0385803  
H34      H      0.098410000000     0.202330000000     0.377850000000     0.0383227  
H35      H      0.154380000000     0.202330000000     0.377850000000     0.0384166  
H36      H      0.154470000000     0.301910000000     0.376520000000     0.038637   
H37      H      0.501400000000     0.051150000000     0.474390000000     0.0382394  
H38      H      0.001410000000     0.451550000000     0.474390000000     0.0377022  
H39      H      0.001410000000     0.451560000000     0.530570000000     0.0377518  
H40      H      0.501420000000     0.051150000000     0.530560000000     0.0382832  
H41      H      0.404490000000     0.451590000000     0.377150000000     0.0383971  
H42      H      0.404390000000     0.051190000000     0.377160000000     0.0384327  
H43      H      0.348330000000     0.051110000000     0.377170000000     0.038391   
H44      H      0.348430000000     0.451520000000     0.377140000000     0.038494   
H45      H      0.098430000000     0.451520000000     0.377160000000     0.0385487  
H46      H      0.098330000000     0.051110000000     0.377170000000     0.0380673  
H47      H      0.154390000000     0.051190000000     0.377170000000     0.038158   
H48      H      0.154490000000     0.451600000000     0.377170000000     0.0385944  
H49      H      0.286960000000     0.216710000000     0.780820000000     0.0352647  
H50      H      0.215880000000     0.286240000000     0.780820000000     0.0352821  
H51      H      0.216410000000     0.286780000000     0.724160000000     0.0352769  
H52      H      0.286430000000     0.216170000000     0.724160000000     0.0352739  
H53      H      0.216000000000     0.036320000000     0.780800000000     0.0345542  
H54      H      0.286830000000     0.466540000000     0.780830000000     0.0354746  
H55      H      0.286300000000     0.465980000000     0.724170000000     0.0354357  
H56      H      0.216540000000     0.036830000000     0.724130000000     0.0351161  
H57      H      0.301250000000     0.348480000000     0.877190000000     0.0387364  
H58      H      0.201650000000     0.348380000000     0.877180000000     0.0384232  
H59      H      0.201580000000     0.404440000000     0.877170000000     0.0384475  
H60      H      0.301170000000     0.404540000000     0.877190000000     0.0386216  
H61      H      0.201660000000     0.098380000000     0.877150000000     0.0385108  
H62      H      0.301250000000     0.098480000000     0.877150000000     0.0383594  
H63      H      0.301170000000     0.154540000000     0.877160000000     0.0383516  
H64      H      0.201580000000     0.154440000000     0.877150000000     0.038637   
H65      H      0.466030000000     0.216570000000     0.780820000000     0.0352033  
H66      H      0.036870000000     0.286350000000     0.780810000000     0.0349976  
H67      H      0.036320000000     0.286890000000     0.724150000000     0.0344212  
H68      H      0.466550000000     0.216050000000     0.724160000000     0.0352298  
H69      H      0.466170000000     0.036440000000     0.780800000000     0.0344224  
H70      H      0.036750000000     0.466410000000     0.780810000000     0.0350424  
H71      H      0.036200000000     0.465850000000     0.724150000000     0.0344329  
H72      H      0.466690000000     0.036950000000     0.724140000000     0.0349732  
H73      H      0.050580000000     0.404430000000     0.877840000000     0.0382156  
H74      H      0.450990000000     0.404520000000     0.876520000000     0.0386543  
H75      H      0.450990000000     0.348370000000     0.876530000000     0.0387053  
H76      H      0.050580000000     0.348460000000     0.877840000000     0.0381873  
H77      H      0.051930000000     0.098370000000     0.876500000000     0.0382574  
H78      H      0.452350000000     0.098460000000     0.877820000000     0.0383771  
H79      H      0.452350000000     0.154430000000     0.877830000000     0.0384073  
H80      H      0.051930000000     0.154520000000     0.876500000000     0.0383881  
H81      H      0.286940000000     0.286180000000     0.224160000000     0.0353356  
H82      H      0.215840000000     0.216680000000     0.224160000000     0.0352612  
H83      H      0.216380000000     0.216150000000     0.280820000000     0.0352554  
H84      H      0.286410000000     0.286730000000     0.280820000000     0.0352665  
H85      H      0.201610000000     0.251430000000     0.030570000000     0.0385472  
H86      H      0.301200000000     0.251420000000     0.030580000000     0.0385831  
H87      H      0.301200000000     0.251440000000     0.974400000000     0.038562   
H88      H      0.201610000000     0.251440000000     0.974400000000     0.0385424  
H89      H      0.215980000000     0.466510000000     0.224140000000     0.0354238  
H90      H      0.286830000000     0.036270000000     0.224160000000     0.0346131  
H91      H      0.286290000000     0.036790000000     0.280820000000     0.0351468  
H92      H      0.216520000000     0.465950000000     0.280800000000     0.0354291  
H93      H      0.201610000000     0.001450000000     0.030570000000     0.0377217  
H94      H      0.301200000000     0.501450000000     0.030570000000     0.0385239  
H95      H      0.301200000000     0.501470000000     0.974400000000     0.0385339  
H96      H      0.201610000000     0.001460000000     0.974390000000     0.0377159  
H97      H      0.201640000000     0.404500000000     0.127780000000     0.0386164  
H98      H      0.301240000000     0.404400000000     0.127800000000     0.0385016  
H99      H      0.301160000000     0.348340000000     0.127800000000     0.0384223  
H100     H      0.201570000000     0.348440000000     0.127790000000     0.0387105  
H101     H      0.301230000000     0.154400000000     0.127820000000     0.0387445  
H102     H      0.201640000000     0.154500000000     0.127810000000     0.0383752  
H103     H      0.201560000000     0.098440000000     0.127820000000     0.0383267  
H104     H      0.301160000000     0.098340000000     0.127810000000     0.0385004  
H105     H      0.466010000000     0.286310000000     0.224140000000     0.0352314  
H106     H      0.036850000000     0.216530000000     0.224170000000     0.0349268  
H107     H      0.036300000000     0.216010000000     0.280830000000     0.0344136  
H108     H      0.466530000000     0.286850000000     0.280800000000     0.0352561  
H109     H      0.451670000000     0.251430000000     0.974400000000     0.0385334  
H110     H      0.051260000000     0.251420000000     0.974400000000     0.0382905  
H111     H      0.051260000000     0.251410000000     0.030580000000     0.0383042  
H112     H      0.451670000000     0.251410000000     0.030570000000     0.0385659  
H113     H      0.466140000000     0.466370000000     0.224130000000     0.0352976  
H114     H      0.036730000000     0.036390000000     0.224160000000     0.0341646  
H115     H      0.036180000000     0.036910000000     0.280830000000     0.0341817  
H116     H      0.466670000000     0.465820000000     0.280790000000     0.0352509  
H117     H      0.451660000000     0.501440000000     0.030560000000     0.0384722  
H118     H      0.051260000000     0.001430000000     0.030570000000     0.0374386  
H119     H      0.051260000000     0.001450000000     0.974390000000     0.0374773  
H120     H      0.451670000000     0.501450000000     0.974390000000     0.0385529  
H121     H      0.452330000000     0.404390000000     0.127110000000     0.0384653  
H122     H      0.051920000000     0.404480000000     0.128450000000     0.0383634  
H123     H      0.051920000000     0.348340000000     0.128450000000     0.0384157  
H124     H      0.452330000000     0.348430000000     0.127110000000     0.0384372  
H125     H      0.450980000000     0.154480000000     0.128450000000     0.0386613  
H126     H      0.050570000000     0.154390000000     0.127150000000     0.0381688  
H127     H      0.050570000000     0.098430000000     0.127160000000     0.0381401  
H128     H      0.450980000000     0.098340000000     0.128450000000     0.0385292  
H129     H      0.404400000000     0.702350000000     0.627150000000     0.0383967  
H130     H      0.404490000000     0.801940000000     0.628460000000     0.0388284  
H131     H      0.348350000000     0.801940000000     0.628460000000     0.0387912  
H132     H      0.348440000000     0.702350000000     0.627150000000     0.038442   
H133     H      0.098440000000     0.800590000000     0.627130000000     0.0384719  
H134     H      0.098350000000     0.701000000000     0.628450000000     0.0385295  
H135     H      0.154490000000     0.701000000000     0.628460000000     0.0385899  
H136     H      0.154400000000     0.800590000000     0.627130000000     0.0385751  
H137     H      0.404410000000     0.951540000000     0.627820000000     0.0381598  
H138     H      0.404510000000     0.551140000000     0.627790000000     0.038358   
H139     H      0.348450000000     0.551210000000     0.627800000000     0.0384613  
H140     H      0.348350000000     0.951620000000     0.627810000000     0.0380823  
H141     H      0.098350000000     0.951620000000     0.627800000000     0.0377484  
H142     H      0.098450000000     0.551210000000     0.627770000000     0.0385207  
H143     H      0.154510000000     0.551130000000     0.627770000000     0.0385644  
H144     H      0.154410000000     0.951540000000     0.627810000000     0.0379019  
H145     H      0.251410000000     0.801250000000     0.474400000000     0.0386835  
H146     H      0.251410000000     0.701660000000     0.474410000000     0.0385353  
H147     H      0.251410000000     0.701670000000     0.530580000000     0.0384991  
H148     H      0.251420000000     0.801260000000     0.530570000000     0.0386341  
H149     H      0.251420000000     0.551150000000     0.474390000000     0.0385074  
H150     H      0.251420000000     0.951550000000     0.474400000000     0.0379811  
H151     H      0.251420000000     0.951560000000     0.530570000000     0.0379562  
H152     H      0.251430000000     0.551150000000     0.530560000000     0.0385352  
H153     H      0.501400000000     0.801250000000     0.474390000000     0.038633   
H154     H      0.001390000000     0.701660000000     0.474400000000     0.0376871  
H155     H      0.001410000000     0.701670000000     0.530580000000     0.037694   
H156     H      0.501400000000     0.801260000000     0.530570000000     0.0386326  
H157     H      0.404380000000     0.800560000000     0.377820000000     0.0385254  
H158     H      0.404470000000     0.700980000000     0.376520000000     0.0386733  
H159     H      0.348330000000     0.700980000000     0.376520000000     0.0386451  
H160     H      0.348410000000     0.800560000000     0.377830000000     0.0385773  
H161     H      0.098330000000     0.801910000000     0.376520000000     0.038699   
H162     H      0.098410000000     0.702330000000     0.377850000000     0.0383098  
H163     H      0.154380000000     0.702330000000     0.377850000000     0.0384075  
H164     H      0.154470000000     0.801910000000     0.376520000000     0.038753   
H165     H      0.501400000000     0.551150000000     0.474390000000     0.0384701  
H166     H      0.001410000000     0.951550000000     0.474390000000     0.0371348  
H167     H      0.001410000000     0.951560000000     0.530570000000     0.0371839  
H168     H      0.501420000000     0.551150000000     0.530560000000     0.0385136  
H169     H      0.404490000000     0.951590000000     0.377150000000     0.0378213  
H170     H      0.404390000000     0.551190000000     0.377160000000     0.0386781  
H171     H      0.348330000000     0.551110000000     0.377170000000     0.0386129  
H172     H      0.348430000000     0.951520000000     0.377140000000     0.0379565  
H173     H      0.098430000000     0.951520000000     0.377160000000     0.0380517  
H174     H      0.098330000000     0.551110000000     0.377170000000     0.0382807  
H175     H      0.154390000000     0.551190000000     0.377170000000     0.0384114  
H176     H      0.154490000000     0.951590000000     0.377170000000     0.0379852  
H177     H      0.286960000000     0.716710000000     0.780820000000     0.0352765  
H178     H      0.215880000000     0.786240000000     0.780820000000     0.0354078  
H179     H      0.216410000000     0.786780000000     0.724160000000     0.0353944  
H180     H      0.286430000000     0.716170000000     0.724160000000     0.0352691  
H181     H      0.216000000000     0.536320000000     0.780800000000     0.0354     
H182     H      0.286830000000     0.966540000000     0.780830000000     0.0355216  
H183     H      0.286300000000     0.965980000000     0.724170000000     0.0356586  
H184     H      0.216540000000     0.536830000000     0.724130000000     0.0353918  
H185     H      0.301250000000     0.848480000000     0.877190000000     0.0389872  
H186     H      0.201650000000     0.848380000000     0.877180000000     0.0386727  
H187     H      0.201580000000     0.904440000000     0.877170000000     0.0396234  
H188     H      0.301170000000     0.904540000000     0.877190000000     0.0397623  
H189     H      0.201660000000     0.598380000000     0.877150000000     0.038595   
H190     H      0.301250000000     0.598480000000     0.877150000000     0.038464   
H191     H      0.301170000000     0.654540000000     0.877160000000     0.038372   
H192     H      0.201580000000     0.654440000000     0.877150000000     0.0386521  
H193     H      0.466030000000     0.716570000000     0.780820000000     0.0352441  
H194     H      0.036870000000     0.786350000000     0.780810000000     0.0351289  
H195     H      0.036320000000     0.786890000000     0.724150000000     0.0345115  
H196     H      0.466550000000     0.716040000000     0.724160000000     0.0351835  
H197     H      0.466170000000     0.536440000000     0.780800000000     0.0352736  
H198     H      0.036750000000     0.966410000000     0.780810000000     0.0350854  
H199     H      0.036200000000     0.965850000000     0.724150000000     0.0346664  
H200     H      0.466690000000     0.536950000000     0.724140000000     0.0352381  
H201     H      0.050580000000     0.904430000000     0.877840000000     0.0393564  
H202     H      0.450990000000     0.904520000000     0.876520000000     0.0398294  
H203     H      0.450990000000     0.848380000000     0.876530000000     0.0389554  
H204     H      0.050580000000     0.848460000000     0.877840000000     0.0384296  
H205     H      0.051930000000     0.598370000000     0.876500000000     0.0383611  
H206     H      0.452350000000     0.598460000000     0.877820000000     0.0384562  
H207     H      0.452350000000     0.654430000000     0.877830000000     0.038423   
H208     H      0.051930000000     0.654520000000     0.876500000000     0.0384062  
H209     H      0.286940000000     0.786180000000     0.224160000000     0.0354466  
H210     H      0.215840000000     0.716680000000     0.224160000000     0.0352513  
H211     H      0.216380000000     0.716150000000     0.280820000000     0.0353013  
H212     H      0.286410000000     0.786730000000     0.280820000000     0.0354205  
H213     H      0.201610000000     0.751430000000     0.030570000000     0.0386373  
H214     H      0.301200000000     0.751420000000     0.030580000000     0.0386727  
H215     H      0.301200000000     0.751440000000     0.974400000000     0.0386519  
H216     H      0.201610000000     0.751440000000     0.974400000000     0.0386321  
H217     H      0.215980000000     0.966510000000     0.224140000000     0.0354884  
H218     H      0.286830000000     0.536270000000     0.224160000000     0.035455   
H219     H      0.286290000000     0.536790000000     0.280820000000     0.0354241  
H220     H      0.216520000000     0.965950000000     0.280800000000     0.0356185  
H221     H      0.201610000000     0.501450000000     0.030570000000     0.0385163  
H222     H      0.301200000000     0.001450000000     0.030570000000     0.037734   
H223     H      0.301200000000     0.001470000000     0.974400000000     0.0377366  
H224     H      0.201610000000     0.501460000000     0.974390000000     0.0385075  
H225     H      0.201640000000     0.904500000000     0.127780000000     0.0397392  
H226     H      0.301240000000     0.904400000000     0.127800000000     0.0396666  
H227     H      0.301160000000     0.848340000000     0.127800000000     0.0386984  
H228     H      0.201570000000     0.848440000000     0.127790000000     0.0389808  
H229     H      0.301230000000     0.654400000000     0.127820000000     0.0387584  
H230     H      0.201640000000     0.654500000000     0.127810000000     0.0384012  
H231     H      0.201560000000     0.598440000000     0.127820000000     0.0384291  
H232     H      0.301160000000     0.598340000000     0.127810000000     0.0385795  
H233     H      0.466010000000     0.786310000000     0.224140000000     0.0353548  
H234     H      0.036850000000     0.716530000000     0.224170000000     0.0349373  
H235     H      0.036300000000     0.716010000000     0.280830000000     0.0344089  
H236     H      0.466530000000     0.786850000000     0.280800000000     0.0353556  
H237     H      0.451670000000     0.751430000000     0.974400000000     0.0386231  
H238     H      0.051260000000     0.751420000000     0.974400000000     0.0383795  
H239     H      0.051260000000     0.751410000000     0.030580000000     0.0383938  
H240     H      0.451670000000     0.751410000000     0.030570000000     0.0386548  
H241     H      0.466140000000     0.966370000000     0.224130000000     0.0353508  
H242     H      0.036730000000     0.536390000000     0.224160000000     0.0350104  
H243     H      0.036180000000     0.536910000000     0.280830000000     0.034449   
H244     H      0.466670000000     0.965820000000     0.280790000000     0.0354582  
H245     H      0.451660000000     0.001440000000     0.030560000000     0.0376774  
H246     H      0.051260000000     0.501430000000     0.030570000000     0.0382307  
H247     H      0.051260000000     0.501450000000     0.974390000000     0.0382699  
H248     H      0.451670000000     0.001450000000     0.974390000000     0.0377596  
H249     H      0.452330000000     0.904390000000     0.127110000000     0.0396094  
H250     H      0.051920000000     0.904480000000     0.128450000000     0.0395399  
H251     H      0.051920000000     0.848340000000     0.128450000000     0.0386641  
H252     H      0.452330000000     0.848430000000     0.127110000000     0.0386788  
H253     H      0.450980000000     0.654480000000     0.128450000000     0.0386884  
H254     H      0.050570000000     0.654390000000     0.127150000000     0.0381947  
H255     H      0.050570000000     0.598430000000     0.127160000000     0.038209   
H256     H      0.450980000000     0.598340000000     0.128450000000     0.0386192  
H257     H      0.904400000000     0.202350000000     0.627150000000     0.0395226  
H258     H      0.904490000000     0.301940000000     0.628460000000     0.0399146  
H259     H      0.848350000000     0.301940000000     0.628460000000     0.0389372  
H260     H      0.848440000000     0.202350000000     0.627150000000     0.0386786  
H261     H      0.598440000000     0.300590000000     0.627130000000     0.0384298  
H262     H      0.598350000000     0.201000000000     0.628450000000     0.0386761  
H263     H      0.654490000000     0.201000000000     0.628460000000     0.0386052  
H264     H      0.654400000000     0.300590000000     0.627130000000     0.0384459  
H265     H      0.904400000000     0.451540000000     0.627820000000     0.0399105  
H266     H      0.904510000000     0.051130000000     0.627790000000     0.0392645  
H267     H      0.848450000000     0.051210000000     0.627800000000     0.0384619  
H268     H      0.848350000000     0.451620000000     0.627810000000     0.0388972  
H269     H      0.598350000000     0.451620000000     0.627800000000     0.0383965  
H270     H      0.598450000000     0.051210000000     0.627770000000     0.0384096  
H271     H      0.654510000000     0.051130000000     0.627770000000     0.0383638  
H272     H      0.654410000000     0.451540000000     0.627810000000     0.0384345  
H273     H      0.751410000000     0.301250000000     0.474400000000     0.0386854  
H274     H      0.751410000000     0.201660000000     0.474410000000     0.0386542  
H275     H      0.751410000000     0.201660000000     0.530580000000     0.0385611  
H276     H      0.751420000000     0.301260000000     0.530570000000     0.0385953  
H277     H      0.751420000000     0.051140000000     0.474390000000     0.0384034  
H278     H      0.751420000000     0.451550000000     0.474400000000     0.0386338  
H279     H      0.751420000000     0.451560000000     0.530570000000     0.0386263  
H280     H      0.751430000000     0.051150000000     0.530560000000     0.0383563  
H281     H      0.001400000000     0.301250000000     0.474390000000     0.0377332  
H282     H      0.501400000000     0.201660000000     0.474400000000     0.0384929  
H283     H      0.501400000000     0.201670000000     0.530580000000     0.0385111  
H284     H      0.001400000000     0.301260000000     0.530570000000     0.0377442  
H285     H      0.904380000000     0.300560000000     0.377820000000     0.0395528  
H286     H      0.904470000000     0.200980000000     0.376520000000     0.0399032  
H287     H      0.848330000000     0.200980000000     0.376520000000     0.0389354  
H288     H      0.848410000000     0.300560000000     0.377830000000     0.0387139  
H289     H      0.598330000000     0.301910000000     0.376520000000     0.038705   
H290     H      0.598410000000     0.202330000000     0.377850000000     0.0383787  
H291     H      0.654380000000     0.202330000000     0.377850000000     0.0384229  
H292     H      0.654470000000     0.301910000000     0.376520000000     0.0386658  
H293     H      0.001400000000     0.051150000000     0.474390000000     0.0374541  
H294     H      0.501410000000     0.451550000000     0.474390000000     0.0385048  
H295     H      0.501410000000     0.451560000000     0.530570000000     0.03854    
H296     H      0.001420000000     0.051150000000     0.530560000000     0.0374811  
H297     H      0.904490000000     0.451590000000     0.377150000000     0.0395168  
H298     H      0.904390000000     0.051190000000     0.377160000000     0.0396419  
H299     H      0.848330000000     0.051110000000     0.377170000000     0.0386566  
H300     H      0.848430000000     0.451520000000     0.377140000000     0.0387299  
H301     H      0.598430000000     0.451520000000     0.377160000000     0.0386666  
H302     H      0.598330000000     0.051110000000     0.377170000000     0.0381281  
H303     H      0.654390000000     0.051190000000     0.377170000000     0.0381629  
H304     H      0.654490000000     0.451600000000     0.377170000000     0.0386224  
H305     H      0.786960000000     0.216710000000     0.780820000000     0.0353556  
H306     H      0.715880000000     0.286240000000     0.780820000000     0.0352767  
H307     H      0.716410000000     0.286780000000     0.724160000000     0.0352766  
H308     H      0.786430000000     0.216170000000     0.724160000000     0.0353871  
H309     H      0.716000000000     0.036320000000     0.780800000000     0.0345836  
H310     H      0.786830000000     0.466540000000     0.780830000000     0.0356191  
H311     H      0.786300000000     0.465980000000     0.724170000000     0.0355678  
H312     H      0.716540000000     0.036830000000     0.724130000000     0.0351192  
H313     H      0.801250000000     0.348480000000     0.877190000000     0.0388654  
H314     H      0.701650000000     0.348380000000     0.877180000000     0.0384043  
H315     H      0.701580000000     0.404440000000     0.877170000000     0.0384288  
H316     H      0.801170000000     0.404540000000     0.877190000000     0.0387498  
H317     H      0.701660000000     0.098380000000     0.877150000000     0.038509   
H318     H      0.801250000000     0.098480000000     0.877150000000     0.038459   
H319     H      0.801170000000     0.154540000000     0.877160000000     0.0384483  
H320     H      0.701580000000     0.154440000000     0.877150000000     0.0386342  
H321     H      0.966030000000     0.216570000000     0.780820000000     0.0353511  
H322     H      0.536870000000     0.286350000000     0.780810000000     0.0352165  
H323     H      0.536320000000     0.286890000000     0.724150000000     0.0352489  
H324     H      0.966550000000     0.216050000000     0.724160000000     0.0352579  
H325     H      0.966170000000     0.036440000000     0.780800000000     0.0345841  
H326     H      0.536750000000     0.466410000000     0.780810000000     0.0352726  
H327     H      0.536200000000     0.465850000000     0.724150000000     0.0352371  
H328     H      0.966690000000     0.036950000000     0.724140000000     0.0349797  
H329     H      0.550580000000     0.404430000000     0.877840000000     0.0384156  
H330     H      0.951000000000     0.404520000000     0.876520000000     0.0381603  
H331     H      0.951000000000     0.348370000000     0.876530000000     0.0382132  
H332     H      0.550580000000     0.348460000000     0.877840000000     0.0383853  
H333     H      0.551930000000     0.098370000000     0.876500000000     0.0385208  
H334     H      0.952350000000     0.098460000000     0.877820000000     0.0377683  
H335     H      0.952350000000     0.154430000000     0.877830000000     0.0378021  
H336     H      0.551930000000     0.154520000000     0.876500000000     0.0386505  
H337     H      0.786940000000     0.286180000000     0.224160000000     0.0354279  
H338     H      0.715840000000     0.216680000000     0.224160000000     0.0352518  
H339     H      0.716380000000     0.216150000000     0.280820000000     0.0352539  
H340     H      0.786410000000     0.286730000000     0.280820000000     0.0353893  
H341     H      0.701610000000     0.251430000000     0.030570000000     0.0385311  
H342     H      0.801200000000     0.251420000000     0.030580000000     0.0386802  
H343     H      0.801200000000     0.251440000000     0.974400000000     0.03866    
H344     H      0.701610000000     0.251440000000     0.974400000000     0.0385269  
H345     H      0.715980000000     0.466510000000     0.224140000000     0.0354283  
H346     H      0.786830000000     0.036270000000     0.224160000000     0.0347367  
H347     H      0.786290000000     0.036790000000     0.280820000000     0.0352891  
H348     H      0.716520000000     0.465950000000     0.280800000000     0.0354427  
H349     H      0.701610000000     0.001450000000     0.030570000000     0.0377116  
H350     H      0.801200000000     0.501450000000     0.030570000000     0.0386555  
H351     H      0.801200000000     0.501470000000     0.974400000000     0.0386186  
H352     H      0.701610000000     0.001460000000     0.974390000000     0.0376944  
H353     H      0.701640000000     0.404500000000     0.127780000000     0.0386132  
H354     H      0.801240000000     0.404400000000     0.127800000000     0.0386017  
H355     H      0.801160000000     0.348340000000     0.127800000000     0.0385196  
H356     H      0.701570000000     0.348440000000     0.127790000000     0.0387063  
H357     H      0.801230000000     0.154400000000     0.127820000000     0.0388344  
H358     H      0.701640000000     0.154500000000     0.127810000000     0.0383298  
H359     H      0.701560000000     0.098440000000     0.127820000000     0.0383217  
H360     H      0.801160000000     0.098340000000     0.127810000000     0.0386712  
H361     H      0.966010000000     0.286310000000     0.224140000000     0.0353857  
H362     H      0.536850000000     0.216530000000     0.224170000000     0.0351714  
H363     H      0.536300000000     0.216010000000     0.280830000000     0.0352094  
H364     H      0.966530000000     0.286850000000     0.280800000000     0.0352592  
H365     H      0.951670000000     0.251430000000     0.974400000000     0.0379836  
H366     H      0.551260000000     0.251420000000     0.974400000000     0.0384919  
H367     H      0.551260000000     0.251410000000     0.030580000000     0.0385426  
H368     H      0.951670000000     0.251410000000     0.030570000000     0.0379851  
H369     H      0.966140000000     0.466370000000     0.224130000000     0.0354516  
H370     H      0.536730000000     0.036390000000     0.224160000000     0.0343984  
H371     H      0.536180000000     0.036910000000     0.280830000000     0.034971   
H372     H      0.966670000000     0.465820000000     0.280790000000     0.0352747  
H373     H      0.951660000000     0.501440000000     0.030560000000     0.0379403  
H374     H      0.551260000000     0.001430000000     0.030570000000     0.0376352  
H375     H      0.551260000000     0.001450000000     0.974390000000     0.037733   
H376     H      0.951670000000     0.501450000000     0.974390000000     0.0379454  
H377     H      0.952330000000     0.404390000000     0.127110000000     0.0378595  
H378     H      0.551920000000     0.404480000000     0.128450000000     0.0386264  
H379     H      0.551920000000     0.348340000000     0.128450000000     0.0386796  
H380     H      0.952330000000     0.348430000000     0.127110000000     0.0378284  
H381     H      0.950980000000     0.154480000000     0.128450000000     0.038177   
H382     H      0.550570000000     0.154390000000     0.127150000000     0.0383628  
H383     H      0.550570000000     0.098430000000     0.127160000000     0.038333   
H384     H      0.950980000000     0.098340000000     0.128450000000     0.0380483  
H385     H      0.904400000000     0.702350000000     0.627150000000     0.0395099  
H386     H      0.904490000000     0.801940000000     0.628460000000     0.0400322  
H387     H      0.848350000000     0.801940000000     0.628460000000     0.0390536  
H388     H      0.848440000000     0.702350000000     0.627150000000     0.0386693  
H389     H      0.598440000000     0.800590000000     0.627130000000     0.0385293  
H390     H      0.598350000000     0.701000000000     0.628450000000     0.0386557  
H391     H      0.654490000000     0.701000000000     0.628460000000     0.0386194  
H392     H      0.654400000000     0.800590000000     0.627130000000     0.0385807  
H393     H      0.904400000000     0.951540000000     0.627820000000     0.039365   
H394     H      0.904510000000     0.551140000000     0.627790000000     0.0394756  
H395     H      0.848450000000     0.551210000000     0.627800000000     0.0386912  
H396     H      0.848350000000     0.951620000000     0.627810000000     0.0383461  
H397     H      0.598350000000     0.951620000000     0.627800000000     0.0378178  
H398     H      0.598450000000     0.551210000000     0.627770000000     0.0386552  
H399     H      0.654510000000     0.551130000000     0.627770000000     0.038585   
H400     H      0.654410000000     0.951540000000     0.627810000000     0.0379     
H401     H      0.751410000000     0.801250000000     0.474400000000     0.0387734  
H402     H      0.751410000000     0.701660000000     0.474410000000     0.0386257  
H403     H      0.751410000000     0.701670000000     0.530580000000     0.038589   
H404     H      0.751420000000     0.801260000000     0.530570000000     0.0387246  
H405     H      0.751420000000     0.551150000000     0.474390000000     0.0385985  
H406     H      0.751420000000     0.951550000000     0.474400000000     0.0380718  
H407     H      0.751420000000     0.951560000000     0.530570000000     0.0380467  
H408     H      0.751430000000     0.551150000000     0.530560000000     0.0386249  
H409     H      0.001400000000     0.801250000000     0.474390000000     0.037831   
H410     H      0.501400000000     0.701660000000     0.474400000000     0.0384775  
H411     H      0.501400000000     0.701670000000     0.530580000000     0.0384963  
H412     H      0.001400000000     0.801260000000     0.530570000000     0.0378437  
H413     H      0.904380000000     0.800560000000     0.377820000000     0.0396411  
H414     H      0.904470000000     0.700980000000     0.376520000000     0.0398805  
H415     H      0.848330000000     0.700980000000     0.376520000000     0.0389127  
H416     H      0.848410000000     0.800560000000     0.377830000000     0.0388094  
H417     H      0.598330000000     0.801910000000     0.376520000000     0.0388235  
H418     H      0.598410000000     0.702330000000     0.377850000000     0.0383659  
H419     H      0.654380000000     0.702330000000     0.377850000000     0.0384138  
H420     H      0.654470000000     0.801910000000     0.376520000000     0.0387817  
H421     H      0.001400000000     0.551150000000     0.474390000000     0.0376823  
H422     H      0.501410000000     0.951550000000     0.474390000000     0.0379349  
H423     H      0.501410000000     0.951560000000     0.530570000000     0.0379699  
H424     H      0.001420000000     0.551150000000     0.530560000000     0.037709   
H425     H      0.904490000000     0.951590000000     0.377150000000     0.0389396  
H426     H      0.904390000000     0.551190000000     0.377160000000     0.0398884  
H427     H      0.848330000000     0.551110000000     0.377170000000     0.0388781  
H428     H      0.848430000000     0.951520000000     0.377140000000     0.0381925  
H429     H      0.598430000000     0.951520000000     0.377160000000     0.0381691  
H430     H      0.598330000000     0.551110000000     0.377170000000     0.0383416  
H431     H      0.654390000000     0.551190000000     0.377170000000     0.038417   
H432     H      0.654490000000     0.951590000000     0.377170000000     0.03801    
H433     H      0.786960000000     0.716710000000     0.780820000000     0.0353675  
H434     H      0.715880000000     0.786240000000     0.780820000000     0.0354024  
H435     H      0.716410000000     0.786780000000     0.724160000000     0.0353941  
H436     H      0.786430000000     0.716170000000     0.724160000000     0.0353822  
H437     H      0.716000000000     0.536320000000     0.780800000000     0.0354295  
H438     H      0.786830000000     0.966540000000     0.780830000000     0.0356645  
H439     H      0.786300000000     0.965980000000     0.724170000000     0.0357892  
H440     H      0.716540000000     0.536830000000     0.724130000000     0.0353952  
H441     H      0.801250000000     0.848480000000     0.877190000000     0.0391154  
H442     H      0.701650000000     0.848380000000     0.877180000000     0.038654   
H443     H      0.701580000000     0.904440000000     0.877170000000     0.0396048  
H444     H      0.801170000000     0.904540000000     0.877190000000     0.0398885  
H445     H      0.701660000000     0.598380000000     0.877150000000     0.0385933  
H446     H      0.801250000000     0.598480000000     0.877150000000     0.0385635  
H447     H      0.801170000000     0.654540000000     0.877160000000     0.0384687  
H448     H      0.701580000000     0.654440000000     0.877150000000     0.0386493  
H449     H      0.966030000000     0.716570000000     0.780820000000     0.0353929  
H450     H      0.536870000000     0.786350000000     0.780810000000     0.035347   
H451     H      0.536320000000     0.786890000000     0.724150000000     0.0353397  
H452     H      0.966550000000     0.716040000000     0.724160000000     0.0352129  
H453     H      0.966170000000     0.536440000000     0.780800000000     0.0354333  
H454     H      0.536750000000     0.966410000000     0.780810000000     0.0353145  
H455     H      0.536200000000     0.965850000000     0.724150000000     0.0354681  
H456     H      0.966690000000     0.536950000000     0.724140000000     0.0352429  
H457     H      0.550580000000     0.904430000000     0.877840000000     0.0395575  
H458     H      0.951000000000     0.904520000000     0.876520000000     0.0393343  
H459     H      0.951000000000     0.848380000000     0.876530000000     0.0384615  
H460     H      0.550580000000     0.848460000000     0.877840000000     0.0386274  
H461     H      0.551930000000     0.598370000000     0.876500000000     0.038624   
H462     H      0.952350000000     0.598460000000     0.877820000000     0.0378468  
H463     H      0.952350000000     0.654430000000     0.877830000000     0.0378174  
H464     H      0.551930000000     0.654520000000     0.876500000000     0.0386693  
H465     H      0.786940000000     0.786180000000     0.224160000000     0.0355386  
H466     H      0.715840000000     0.716680000000     0.224160000000     0.0352419  
H467     H      0.716380000000     0.716150000000     0.280820000000     0.0352997  
H468     H      0.786410000000     0.786730000000     0.280820000000     0.035543   
H469     H      0.701610000000     0.751430000000     0.030570000000     0.0386212  
H470     H      0.801200000000     0.751420000000     0.030580000000     0.0387696  
H471     H      0.801200000000     0.751440000000     0.974400000000     0.0387497  
H472     H      0.701610000000     0.751440000000     0.974400000000     0.0386166  
H473     H      0.715980000000     0.966510000000     0.224140000000     0.0354935  
H474     H      0.786830000000     0.536270000000     0.224160000000     0.0355782  
H475     H      0.786290000000     0.536790000000     0.280820000000     0.0355662  
H476     H      0.716520000000     0.965950000000     0.280800000000     0.0356326  
H477     H      0.701610000000     0.501450000000     0.030570000000     0.0385074  
H478     H      0.801200000000     0.001450000000     0.030570000000     0.0378657  
H479     H      0.801200000000     0.001470000000     0.974400000000     0.0378214  
H480     H      0.701610000000     0.501460000000     0.974390000000     0.0384872  
H481     H      0.701640000000     0.904500000000     0.127780000000     0.0397361  
H482     H      0.801240000000     0.904400000000     0.127800000000     0.0397649  
H483     H      0.801160000000     0.848340000000     0.127800000000     0.0387951  
H484     H      0.701570000000     0.848440000000     0.127790000000     0.0389767  
H485     H      0.801230000000     0.654400000000     0.127820000000     0.0388483  
H486     H      0.701640000000     0.654500000000     0.127810000000     0.0383558  
H487     H      0.701560000000     0.598440000000     0.127820000000     0.0384243  
H488     H      0.801160000000     0.598340000000     0.127810000000     0.0387503  
H489     H      0.966010000000     0.786310000000     0.224140000000     0.0355079  
H490     H      0.536850000000     0.716530000000     0.224170000000     0.0351821  
H491     H      0.536300000000     0.716010000000     0.280830000000     0.0352047  
H492     H      0.966530000000     0.786850000000     0.280800000000     0.0353573  
H493     H      0.951670000000     0.751430000000     0.974400000000     0.0380734  
H494     H      0.551260000000     0.751420000000     0.974400000000     0.0385809  
H495     H      0.551260000000     0.751410000000     0.030580000000     0.0386322  
H496     H      0.951670000000     0.751410000000     0.030570000000     0.0380741  
H497     H      0.966140000000     0.966370000000     0.224130000000     0.0355048  
H498     H      0.536730000000     0.536390000000     0.224160000000     0.0352466  
H499     H      0.536180000000     0.536910000000     0.280830000000     0.035241   
H500     H      0.966670000000     0.965820000000     0.280790000000     0.0354814  
H501     H      0.951660000000     0.001440000000     0.030560000000     0.0371479  
H502     H      0.551260000000     0.501430000000     0.030570000000     0.0384297  
H503     H      0.551260000000     0.501450000000     0.974390000000     0.0385281  
H504     H      0.951670000000     0.001450000000     0.974390000000     0.0371545  
H505     H      0.952330000000     0.904390000000     0.127110000000     0.0390055  
H506     H      0.551920000000     0.904480000000     0.128450000000     0.0398032  
H507     H      0.551920000000     0.848340000000     0.128450000000     0.038928   
H508     H      0.952330000000     0.848430000000     0.127110000000     0.0380701  
H509     H      0.950980000000     0.654480000000     0.128450000000     0.0382033  
H510     H      0.550570000000     0.654390000000     0.127150000000     0.0383897  
H511     H      0.550570000000     0.598430000000     0.127160000000     0.0384007  
H512     H      0.950980000000     0.598340000000     0.128450000000     0.038139   
O1       O      0.027600000000     0.457910000000     0.128160000000    -0.540636   
O2       O      0.026790000000     0.045360000000     0.127370000000    -0.540727   
O3       O      0.027220000000     0.502280000000     0.171580000000    -0.540193   
O4       O      0.027200000000     0.001290000000     0.083940000000    -0.541496   
O5       O      0.475710000000     0.501550000000     0.083930000000    -0.543692   
O6       O      0.475670000000     0.000520000000     0.171570000000    -0.5442     
O7       O      0.475300000000     0.044910000000     0.128170000000    -0.541445   
O8       O      0.476110000000     0.457460000000     0.127340000000    -0.544581   
O9       O      0.027600000000     0.294910000000     0.128170000000    -0.540584   
O10      O      0.026790000000     0.207460000000     0.127370000000    -0.54223    
O11      O      0.027210000000     0.251540000000     0.083950000000    -0.541239   
O12      O      0.027210000000     0.250540000000     0.171590000000    -0.540412   
O13      O      0.475660000000     0.252290000000     0.171580000000    -0.542466   
O14      O      0.475710000000     0.251280000000     0.083940000000    -0.543555   
O15      O      0.475300000000     0.207910000000     0.128170000000    -0.542822   
O16      O      0.476110000000     0.295360000000     0.127360000000    -0.544599   
O17      O      0.225700000000     0.457640000000     0.127370000000    -0.544308   
O18      O      0.225600000000     0.045090000000     0.128160000000    -0.541504   
O19      O      0.225650000000     0.501720000000     0.083940000000    -0.54357    
O20      O      0.225620000000     0.000710000000     0.171580000000    -0.54413    
O21      O      0.277180000000     0.502110000000     0.171580000000    -0.542505   
O22      O      0.277150000000     0.001150000000     0.083940000000    -0.543624   
O23      O      0.277100000000     0.045210000000     0.127390000000    -0.542642   
O24      O      0.277200000000     0.457760000000     0.128140000000    -0.543052   
O25      O      0.277150000000     0.251140000000     0.083950000000    -0.543503   
O26      O      0.277180000000     0.252120000000     0.171590000000    -0.542554   
O27      O      0.277200000000     0.207750000000     0.128160000000    -0.542803   
O28      O      0.277100000000     0.295210000000     0.127390000000    -0.544181   
O29      O      0.225600000000     0.295090000000     0.128150000000    -0.542793   
O30      O      0.225700000000     0.207640000000     0.127390000000    -0.544441   
O31      O      0.225620000000     0.250730000000     0.171590000000    -0.542625   
O32      O      0.225650000000     0.251700000000     0.083950000000    -0.543546   
O33      O      0.027210000000     0.501580000000     0.921020000000    -0.541469   
O34      O      0.027240000000     0.000560000000     0.833380000000    -0.541895   
O35      O      0.027620000000     0.044950000000     0.876790000000    -0.539029   
O36      O      0.026800000000     0.457500000000     0.877600000000    -0.542406   
O37      O      0.475310000000     0.457940000000     0.876800000000    -0.542725   
O38      O      0.476120000000     0.045390000000     0.877590000000    -0.543069   
O39      O      0.475690000000     0.502320000000     0.833380000000    -0.542687   
O40      O      0.475710000000     0.001320000000     0.921020000000    -0.543737   
O41      O      0.027220000000     0.251310000000     0.921030000000    -0.541374   
O42      O      0.027230000000     0.252330000000     0.833390000000    -0.540375   
O43      O      0.026800000000     0.295390000000     0.877610000000    -0.542421   
O44      O      0.027620000000     0.207940000000     0.876790000000    -0.540296   
O45      O      0.476120000000     0.207500000000     0.877600000000    -0.544566   
O46      O      0.475310000000     0.294950000000     0.876810000000    -0.542677   
O47      O      0.475680000000     0.250570000000     0.833390000000    -0.542571   
O48      O      0.475720000000     0.251570000000     0.921030000000    -0.543738   
O49      O      0.277110000000     0.457670000000     0.877590000000    -0.544326   
O50      O      0.277210000000     0.045120000000     0.876810000000    -0.541701   
O51      O      0.277160000000     0.501750000000     0.921020000000    -0.543482   
O52      O      0.277200000000     0.000750000000     0.833380000000    -0.544264   
O53      O      0.225640000000     0.502150000000     0.833380000000    -0.542638   
O54      O      0.225660000000     0.001180000000     0.921020000000    -0.543612   
O55      O      0.225710000000     0.045240000000     0.877570000000    -0.542912   
O56      O      0.225620000000     0.457790000000     0.876820000000    -0.542982   
O57      O      0.225710000000     0.295240000000     0.877600000000    -0.544444   
O58      O      0.225620000000     0.207790000000     0.876810000000    -0.542931   
O59      O      0.225660000000     0.251170000000     0.921030000000    -0.543597   
O60      O      0.225640000000     0.252160000000     0.833390000000    -0.542664   
O61      O      0.277200000000     0.250770000000     0.833390000000    -0.542651   
O62      O      0.277160000000     0.251730000000     0.921030000000    -0.543606   
O63      O      0.277110000000     0.207670000000     0.877590000000    -0.544491   
O64      O      0.277210000000     0.295120000000     0.876830000000    -0.542996   
O65      O      0.502110000000     0.027140000000     0.333380000000    -0.540338   
O66      O      0.001120000000     0.027100000000     0.421020000000    -0.541479   
O67      O      0.045190000000     0.027050000000     0.377580000000    -0.540921   
O68      O      0.457740000000     0.027150000000     0.376810000000    -0.540635   
O69      O      0.457620000000     0.475650000000     0.377570000000    -0.544318   
O70      O      0.045080000000     0.475560000000     0.376810000000    -0.541537   
O71      O      0.501690000000     0.475600000000     0.421020000000    -0.543638   
O72      O      0.000720000000     0.475580000000     0.333380000000    -0.544264   
O73      O      0.457450000000     0.276790000000     0.377600000000    -0.54433    
O74      O      0.044900000000     0.277600000000     0.376800000000    -0.541184   
O75      O      0.500520000000     0.277210000000     0.333390000000    -0.542851   
O76      O      0.001520000000     0.277200000000     0.421030000000    -0.543525   
O77      O      0.501260000000     0.225700000000     0.421030000000    -0.543674   
O78      O      0.002280000000     0.225660000000     0.333390000000    -0.543544   
O79      O      0.045340000000     0.226100000000     0.377610000000    -0.543131   
O80      O      0.457900000000     0.225290000000     0.376800000000    -0.542707   
O81      O      0.251700000000     0.475600000000     0.421020000000    -0.54362    
O82      O      0.250710000000     0.475580000000     0.333380000000    -0.542661   
O83      O      0.295070000000     0.475560000000     0.376800000000    -0.543314   
O84      O      0.207620000000     0.475650000000     0.377580000000    -0.544225   
O85      O      0.207740000000     0.027150000000     0.376820000000    -0.540689   
O86      O      0.295200000000     0.027050000000     0.377580000000    -0.542096   
O87      O      0.252100000000     0.027140000000     0.333380000000    -0.540305   
O88      O      0.251130000000     0.027100000000     0.421020000000    -0.541296   
O89      O      0.251270000000     0.277200000000     0.421030000000    -0.543632   
O90      O      0.252270000000     0.277210000000     0.333390000000    -0.542761   
O91      O      0.207890000000     0.277600000000     0.376800000000    -0.542638   
O92      O      0.295340000000     0.276790000000     0.377600000000    -0.54451    
O93      O      0.294900000000     0.225290000000     0.376800000000    -0.542628   
O94      O      0.207450000000     0.226100000000     0.377610000000    -0.54452    
O95      O      0.250510000000     0.225670000000     0.333390000000    -0.542755   
O96      O      0.251530000000     0.225700000000     0.421030000000    -0.543641   
O97      O      0.501700000000     0.027110000000     0.583930000000    -0.541479   
O98      O      0.000740000000     0.027170000000     0.671570000000    -0.541964   
O99      O      0.045090000000     0.027170000000     0.628130000000    -0.539414   
O100     O      0.457640000000     0.027080000000     0.627380000000    -0.541998   
O101     O      0.457760000000     0.475580000000     0.628160000000    -0.542809   
O102     O      0.045210000000     0.475670000000     0.627380000000    -0.542982   
O103     O      0.502130000000     0.475610000000     0.671590000000    -0.542666   
O104     O      0.001140000000     0.475620000000     0.583940000000    -0.543707   
O105     O      0.001540000000     0.225720000000     0.583950000000    -0.543604   
O106     O      0.500550000000     0.225690000000     0.671580000000    -0.542677   
O107     O      0.457470000000     0.226130000000     0.627370000000    -0.544633   
O108     O      0.044920000000     0.225310000000     0.628160000000    -0.541258   
O109     O      0.045370000000     0.276810000000     0.627360000000    -0.543039   
O110     O      0.457920000000     0.277620000000     0.628180000000    -0.542795   
O111     O      0.002310000000     0.277240000000     0.671580000000    -0.543623   
O112     O      0.501280000000     0.277220000000     0.583940000000    -0.543385   
O113     O      0.252120000000     0.475610000000     0.671590000000    -0.542613   
O114     O      0.251150000000     0.475620000000     0.583950000000    -0.543778   
O115     O      0.295210000000     0.475680000000     0.627390000000    -0.544572   
O116     O      0.207760000000     0.475580000000     0.628160000000    -0.542974   
O117     O      0.207640000000     0.027080000000     0.627370000000    -0.541894   
O118     O      0.295090000000     0.027170000000     0.628150000000    -0.540892   
O119     O      0.251710000000     0.027110000000     0.583930000000    -0.541473   
O120     O      0.250730000000     0.027170000000     0.671570000000    -0.540194   
O121     O      0.207920000000     0.225320000000     0.628180000000    -0.542877   
O122     O      0.295370000000     0.226130000000     0.627370000000    -0.544583   
O123     O      0.252300000000     0.225700000000     0.671590000000    -0.542678   
O124     O      0.251290000000     0.225720000000     0.583950000000    -0.5437     
O125     O      0.251550000000     0.277210000000     0.583950000000    -0.543584   
O126     O      0.250540000000     0.277250000000     0.671590000000    -0.542535   
O127     O      0.294920000000     0.277620000000     0.628170000000    -0.542846   
O128     O      0.207470000000     0.276810000000     0.627370000000    -0.544573   
O129     O      0.027600000000     0.957910000000     0.128160000000    -0.534063   
O130     O      0.026790000000     0.545360000000     0.127370000000    -0.542216   
O131     O      0.027220000000     0.002280000000     0.171580000000    -0.541149   
O132     O      0.027200000000     0.501290000000     0.083940000000    -0.541401   
O133     O      0.475710000000     0.001550000000     0.083930000000    -0.543749   
O134     O      0.475670000000     0.500520000000     0.171570000000    -0.542585   
O135     O      0.475300000000     0.544910000000     0.128170000000    -0.542897   
O136     O      0.476110000000     0.957460000000     0.127340000000    -0.538048   
O137     O      0.027600000000     0.794910000000     0.128170000000    -0.540512   
O138     O      0.026790000000     0.707460000000     0.127370000000    -0.542227   
O139     O      0.027210000000     0.751530000000     0.083950000000    -0.54119    
O140     O      0.027210000000     0.750530000000     0.171590000000    -0.540381   
O141     O      0.475660000000     0.752290000000     0.171580000000    -0.542447   
O142     O      0.475710000000     0.751280000000     0.083940000000    -0.543504   
O143     O      0.475300000000     0.707910000000     0.128170000000    -0.542841   
O144     O      0.476110000000     0.795360000000     0.127360000000    -0.544507   
O145     O      0.225700000000     0.957640000000     0.127370000000    -0.537822   
O146     O      0.225600000000     0.545090000000     0.128160000000    -0.542914   
O147     O      0.225650000000     0.001710000000     0.083940000000    -0.543636   
O148     O      0.225620000000     0.500710000000     0.171580000000    -0.542514   
O149     O      0.277180000000     0.002110000000     0.171580000000    -0.543421   
O150     O      0.277150000000     0.501150000000     0.083940000000    -0.543569   
O151     O      0.277100000000     0.545210000000     0.127390000000    -0.544164   
O152     O      0.277200000000     0.957750000000     0.128140000000    -0.536353   
O153     O      0.277150000000     0.751140000000     0.083950000000    -0.54346    
O154     O      0.277180000000     0.752120000000     0.171590000000    -0.542552   
O155     O      0.277200000000     0.707750000000     0.128160000000    -0.542865   
O156     O      0.277100000000     0.795210000000     0.127390000000    -0.544175   
O157     O      0.225600000000     0.795090000000     0.128150000000    -0.542731   
O158     O      0.225700000000     0.707630000000     0.127390000000    -0.544329   
O159     O      0.225620000000     0.750730000000     0.171590000000    -0.542565   
O160     O      0.225650000000     0.751700000000     0.083950000000    -0.543454   
O161     O      0.027210000000     0.001580000000     0.921020000000    -0.541531   
O162     O      0.027240000000     0.500560000000     0.833380000000    -0.540276   
O163     O      0.027620000000     0.544950000000     0.876790000000    -0.540449   
O164     O      0.026800000000     0.957500000000     0.877600000000    -0.535892   
O165     O      0.475310000000     0.957940000000     0.876800000000    -0.536135   
O166     O      0.476120000000     0.545390000000     0.877590000000    -0.544543   
O167     O      0.475690000000     0.002320000000     0.833380000000    -0.543644   
O168     O      0.475710000000     0.501320000000     0.921020000000    -0.543646   
O169     O      0.027220000000     0.751310000000     0.921030000000    -0.541324   
O170     O      0.027230000000     0.752330000000     0.833390000000    -0.540357   
O171     O      0.026800000000     0.795390000000     0.877610000000    -0.54233    
O172     O      0.027620000000     0.707940000000     0.876790000000    -0.540317   
O173     O      0.476120000000     0.707500000000     0.877600000000    -0.544587   
O174     O      0.475310000000     0.794950000000     0.876810000000    -0.542579   
O175     O      0.475680000000     0.750570000000     0.833390000000    -0.542537   
O176     O      0.475720000000     0.751570000000     0.921030000000    -0.543686   
O177     O      0.277110000000     0.957670000000     0.877590000000    -0.537848   
O178     O      0.277210000000     0.545130000000     0.876810000000    -0.543032   
O179     O      0.277160000000     0.001750000000     0.921020000000    -0.543571   
O180     O      0.277200000000     0.500750000000     0.833380000000    -0.542618   
O181     O      0.225640000000     0.002150000000     0.833380000000    -0.543629   
O182     O      0.225660000000     0.501180000000     0.921020000000    -0.543484   
O183     O      0.225710000000     0.545250000000     0.877570000000    -0.544281   
O184     O      0.225620000000     0.957790000000     0.876820000000    -0.536453   
O185     O      0.225710000000     0.795240000000     0.877600000000    -0.544377   
O186     O      0.225620000000     0.707790000000     0.876810000000    -0.542963   
O187     O      0.225660000000     0.751170000000     0.921030000000    -0.543552   
O188     O      0.225640000000     0.752160000000     0.833390000000    -0.542657   
O189     O      0.277200000000     0.750770000000     0.833390000000    -0.542586   
O190     O      0.277160000000     0.751740000000     0.921030000000    -0.54351    
O191     O      0.277110000000     0.707670000000     0.877590000000    -0.544474   
O192     O      0.277210000000     0.795130000000     0.876830000000    -0.542747   
O193     O      0.502110000000     0.527140000000     0.333380000000    -0.542671   
O194     O      0.001120000000     0.527100000000     0.421020000000    -0.543758   
O195     O      0.045190000000     0.527050000000     0.377580000000    -0.543239   
O196     O      0.457740000000     0.527150000000     0.376810000000    -0.542874   
O197     O      0.457620000000     0.975650000000     0.377570000000    -0.538113   
O198     O      0.045080000000     0.975560000000     0.376810000000    -0.535232   
O199     O      0.501690000000     0.975600000000     0.421020000000    -0.537389   
O200     O      0.000720000000     0.975580000000     0.333380000000    -0.537897   
O201     O      0.457450000000     0.776780000000     0.377600000000    -0.544503   
O202     O      0.044900000000     0.777600000000     0.376800000000    -0.541157   
O203     O      0.500520000000     0.777210000000     0.333390000000    -0.542802   
O204     O      0.001520000000     0.777200000000     0.421030000000    -0.543509   
O205     O      0.501260000000     0.725700000000     0.421030000000    -0.543688   
O206     O      0.002280000000     0.725660000000     0.333390000000    -0.543554   
O207     O      0.045340000000     0.726100000000     0.377610000000    -0.543145   
O208     O      0.457900000000     0.725290000000     0.376800000000    -0.5428     
O209     O      0.251700000000     0.975600000000     0.421020000000    -0.537364   
O210     O      0.250710000000     0.975580000000     0.333380000000    -0.536285   
O211     O      0.295070000000     0.975560000000     0.376800000000    -0.536898   
O212     O      0.207620000000     0.975650000000     0.377580000000    -0.538021   
O213     O      0.207740000000     0.527150000000     0.376820000000    -0.542915   
O214     O      0.295200000000     0.527050000000     0.377580000000    -0.544308   
O215     O      0.252100000000     0.527140000000     0.333380000000    -0.542628   
O216     O      0.251130000000     0.527100000000     0.421020000000    -0.543577   
O217     O      0.251270000000     0.777200000000     0.421030000000    -0.543598   
O218     O      0.252270000000     0.777220000000     0.333390000000    -0.542413   
O219     O      0.207890000000     0.777600000000     0.376800000000    -0.542599   
O220     O      0.295340000000     0.776780000000     0.377600000000    -0.544664   
O221     O      0.294900000000     0.725290000000     0.376800000000    -0.542708   
O222     O      0.207450000000     0.726100000000     0.377610000000    -0.544519   
O223     O      0.250510000000     0.725660000000     0.333390000000    -0.542465   
O224     O      0.251530000000     0.725700000000     0.421030000000    -0.543637   
O225     O      0.501700000000     0.527110000000     0.583930000000    -0.543767   
O226     O      0.000740000000     0.527170000000     0.671570000000    -0.544298   
O227     O      0.045090000000     0.527170000000     0.628130000000    -0.541646   
O228     O      0.457640000000     0.527080000000     0.627380000000    -0.544315   
O229     O      0.457760000000     0.975580000000     0.628160000000    -0.5365     
O230     O      0.045210000000     0.975670000000     0.627380000000    -0.536793   
O231     O      0.502130000000     0.975610000000     0.671590000000    -0.536281   
O232     O      0.001140000000     0.975620000000     0.583940000000    -0.537466   
O233     O      0.001540000000     0.725720000000     0.583950000000    -0.543614   
O234     O      0.500550000000     0.725690000000     0.671580000000    -0.542689   
O235     O      0.457470000000     0.726130000000     0.627370000000    -0.544639   
O236     O      0.044920000000     0.725310000000     0.628160000000    -0.541268   
O237     O      0.045370000000     0.776810000000     0.627360000000    -0.543012   
O238     O      0.457920000000     0.777620000000     0.628180000000    -0.542756   
O239     O      0.002310000000     0.777240000000     0.671580000000    -0.543571   
O240     O      0.501280000000     0.777220000000     0.583940000000    -0.54336    
O241     O      0.252120000000     0.975610000000     0.671590000000    -0.536231   
O242     O      0.251150000000     0.975620000000     0.583950000000    -0.537524   
O243     O      0.295210000000     0.975670000000     0.627390000000    -0.538165   
O244     O      0.207760000000     0.975580000000     0.628160000000    -0.536656   
O245     O      0.207640000000     0.527080000000     0.627370000000    -0.544219   
O246     O      0.295090000000     0.527170000000     0.628150000000    -0.543219   
O247     O      0.251710000000     0.527110000000     0.583930000000    -0.543756   
O248     O      0.250730000000     0.527170000000     0.671570000000    -0.542531   
O249     O      0.207920000000     0.725310000000     0.628180000000    -0.542673   
O250     O      0.295370000000     0.726130000000     0.627370000000    -0.544569   
O251     O      0.252300000000     0.725700000000     0.671590000000    -0.542662   
O252     O      0.251290000000     0.725720000000     0.583950000000    -0.543609   
O253     O      0.251550000000     0.777220000000     0.583950000000    -0.543347   
O254     O      0.250540000000     0.777250000000     0.671590000000    -0.542464   
O255     O      0.294920000000     0.777620000000     0.628170000000    -0.542792   
O256     O      0.207470000000     0.776810000000     0.627370000000    -0.544442   
O257     O      0.527600000000     0.457910000000     0.128160000000    -0.54288    
O258     O      0.526790000000     0.045360000000     0.127370000000    -0.543134   
O259     O      0.527220000000     0.502280000000     0.171580000000    -0.54253    
O260     O      0.527200000000     0.001290000000     0.083940000000    -0.543868   
O261     O      0.975700000000     0.501550000000     0.083930000000    -0.537241   
O262     O      0.975670000000     0.000520000000     0.171570000000    -0.537812   
O263     O      0.975290000000     0.044910000000     0.128170000000    -0.534933   
O264     O      0.976110000000     0.457460000000     0.127340000000    -0.53837    
O265     O      0.527600000000     0.294910000000     0.128170000000    -0.542817   
O266     O      0.526790000000     0.207460000000     0.127370000000    -0.544636   
O267     O      0.527210000000     0.251540000000     0.083950000000    -0.543513   
O268     O      0.527210000000     0.250540000000     0.171590000000    -0.542655   
O269     O      0.975670000000     0.252290000000     0.171580000000    -0.536286   
O270     O      0.975710000000     0.251280000000     0.083940000000    -0.537324   
O271     O      0.975290000000     0.207910000000     0.128170000000    -0.536319   
O272     O      0.976110000000     0.295360000000     0.127360000000    -0.538408   
O273     O      0.725700000000     0.457640000000     0.127370000000    -0.54431    
O274     O      0.725600000000     0.045090000000     0.128160000000    -0.541507   
O275     O      0.725650000000     0.501720000000     0.083940000000    -0.543575   
O276     O      0.725620000000     0.000710000000     0.171580000000    -0.544134   
O277     O      0.777180000000     0.502110000000     0.171580000000    -0.542447   
O278     O      0.777150000000     0.001150000000     0.083940000000    -0.543594   
O279     O      0.777100000000     0.045210000000     0.127390000000    -0.542594   
O280     O      0.777200000000     0.457760000000     0.128140000000    -0.543022   
O281     O      0.777150000000     0.251140000000     0.083950000000    -0.543488   
O282     O      0.777180000000     0.252120000000     0.171590000000    -0.542504   
O283     O      0.777190000000     0.207750000000     0.128160000000    -0.542966   
O284     O      0.777100000000     0.295210000000     0.127390000000    -0.544167   
O285     O      0.725600000000     0.295090000000     0.128150000000    -0.542806   
O286     O      0.725700000000     0.207640000000     0.127390000000    -0.544541   
O287     O      0.725620000000     0.250730000000     0.171590000000    -0.542634   
O288     O      0.725650000000     0.251700000000     0.083950000000    -0.54356    
O289     O      0.527210000000     0.501580000000     0.921020000000    -0.543661   
O290     O      0.527240000000     0.000560000000     0.833380000000    -0.544209   
O291     O      0.527620000000     0.044950000000     0.876790000000    -0.54124    
O292     O      0.526800000000     0.457500000000     0.877600000000    -0.544725   
O293     O      0.975310000000     0.457940000000     0.876800000000    -0.536412   
O294     O      0.976120000000     0.045390000000     0.877590000000    -0.53691    
O295     O      0.975690000000     0.502320000000     0.833380000000    -0.536318   
O296     O      0.975720000000     0.001320000000     0.921020000000    -0.537715   
O297     O      0.527210000000     0.251310000000     0.921030000000    -0.543867   
O298     O      0.527230000000     0.252330000000     0.833390000000    -0.542716   
O299     O      0.526800000000     0.295390000000     0.877610000000    -0.54476    
O300     O      0.527620000000     0.207940000000     0.876790000000    -0.542635   
O301     O      0.976120000000     0.207500000000     0.877600000000    -0.538487   
O302     O      0.975310000000     0.294950000000     0.876810000000    -0.53636    
O303     O      0.975680000000     0.250570000000     0.833390000000    -0.536194   
O304     O      0.975720000000     0.251570000000     0.921030000000    -0.537417   
O305     O      0.777110000000     0.457670000000     0.877590000000    -0.544282   
O306     O      0.777210000000     0.045120000000     0.876810000000    -0.541667   
O307     O      0.777160000000     0.501750000000     0.921020000000    -0.543451   
O308     O      0.777200000000     0.000750000000     0.833380000000    -0.544116   
O309     O      0.725630000000     0.502150000000     0.833380000000    -0.542433   
O310     O      0.725660000000     0.001180000000     0.921020000000    -0.543612   
O311     O      0.725710000000     0.045240000000     0.877570000000    -0.542905   
O312     O      0.725620000000     0.457790000000     0.876820000000    -0.542982   
O313     O      0.725710000000     0.295240000000     0.877600000000    -0.544448   
O314     O      0.725620000000     0.207790000000     0.876810000000    -0.54293    
O315     O      0.725660000000     0.251170000000     0.921030000000    -0.543603   
O316     O      0.725630000000     0.252160000000     0.833390000000    -0.542549   
O317     O      0.777190000000     0.250770000000     0.833390000000    -0.54271    
O318     O      0.777160000000     0.251730000000     0.921030000000    -0.543586   
O319     O      0.777110000000     0.207670000000     0.877590000000    -0.54447    
O320     O      0.777210000000     0.295120000000     0.876830000000    -0.542957   
O321     O      0.002110000000     0.027140000000     0.333380000000    -0.541264   
O322     O      0.501120000000     0.027100000000     0.421020000000    -0.541373   
O323     O      0.545190000000     0.027050000000     0.377580000000    -0.542355   
O324     O      0.957740000000     0.027150000000     0.376810000000    -0.53404    
O325     O      0.957620000000     0.475650000000     0.377570000000    -0.537722   
O326     O      0.545070000000     0.475560000000     0.376810000000    -0.543091   
O327     O      0.001690000000     0.475600000000     0.421020000000    -0.543653   
O328     O      0.500720000000     0.475580000000     0.333380000000    -0.54266    
O329     O      0.957450000000     0.276790000000     0.377600000000    -0.537974   
O330     O      0.544900000000     0.277600000000     0.376800000000    -0.542775   
O331     O      0.000520000000     0.277210000000     0.333390000000    -0.544503   
O332     O      0.501520000000     0.277200000000     0.421030000000    -0.543469   
O333     O      0.001260000000     0.225700000000     0.421030000000    -0.543768   
O334     O      0.502280000000     0.225660000000     0.333390000000    -0.542628   
O335     O      0.545340000000     0.226100000000     0.377610000000    -0.544638   
O336     O      0.957900000000     0.225290000000     0.376800000000    -0.536119   
O337     O      0.751700000000     0.475600000000     0.421020000000    -0.543526   
O338     O      0.750710000000     0.475580000000     0.333380000000    -0.542599   
O339     O      0.795080000000     0.475560000000     0.376800000000    -0.54308    
O340     O      0.707620000000     0.475650000000     0.377580000000    -0.544194   
O341     O      0.707740000000     0.027150000000     0.376820000000    -0.540725   
O342     O      0.795200000000     0.027050000000     0.377580000000    -0.542023   
O343     O      0.752100000000     0.027140000000     0.333380000000    -0.540297   
O344     O      0.751130000000     0.027100000000     0.421020000000    -0.541253   
O345     O      0.751270000000     0.277200000000     0.421030000000    -0.54358    
O346     O      0.752280000000     0.277210000000     0.333390000000    -0.542738   
O347     O      0.707890000000     0.277600000000     0.376800000000    -0.542674   
O348     O      0.795340000000     0.276790000000     0.377600000000    -0.5444     
O349     O      0.794900000000     0.225290000000     0.376800000000    -0.542518   
O350     O      0.707450000000     0.226100000000     0.377610000000    -0.544552   
O351     O      0.750510000000     0.225670000000     0.333390000000    -0.542723   
O352     O      0.751530000000     0.225700000000     0.421030000000    -0.543588   
O353     O      0.001700000000     0.027110000000     0.583930000000    -0.541539   
O354     O      0.500740000000     0.027170000000     0.671570000000    -0.540313   
O355     O      0.545090000000     0.027170000000     0.628130000000    -0.540806   
O356     O      0.957640000000     0.027080000000     0.627380000000    -0.535484   
O357     O      0.957760000000     0.475580000000     0.628160000000    -0.536197   
O358     O      0.545210000000     0.475670000000     0.627380000000    -0.54444    
O359     O      0.002130000000     0.475610000000     0.671590000000    -0.543589   
O360     O      0.501140000000     0.475620000000     0.583940000000    -0.54361    
O361     O      0.501540000000     0.225720000000     0.583950000000    -0.543547   
O362     O      0.000550000000     0.225690000000     0.671580000000    -0.544325   
O363     O      0.957470000000     0.226130000000     0.627370000000    -0.538127   
O364     O      0.544920000000     0.225310000000     0.628160000000    -0.542676   
O365     O      0.545370000000     0.276810000000     0.627360000000    -0.544521   
O366     O      0.957920000000     0.277620000000     0.628180000000    -0.536203   
O367     O      0.502310000000     0.277240000000     0.671580000000    -0.542706   
O368     O      0.001280000000     0.277220000000     0.583940000000    -0.54348    
O369     O      0.752120000000     0.475610000000     0.671590000000    -0.5426     
O370     O      0.751150000000     0.475620000000     0.583950000000    -0.543728   
O371     O      0.795210000000     0.475680000000     0.627390000000    -0.544469   
O372     O      0.707760000000     0.475580000000     0.628160000000    -0.543005   
O373     O      0.707640000000     0.027080000000     0.627370000000    -0.541918   
O374     O      0.795090000000     0.027170000000     0.628150000000    -0.5408     
O375     O      0.751710000000     0.027110000000     0.583930000000    -0.541421   
O376     O      0.750730000000     0.027170000000     0.671570000000    -0.540175   
O377     O      0.707920000000     0.225320000000     0.628180000000    -0.542899   
O378     O      0.795370000000     0.226130000000     0.627370000000    -0.544512   
O379     O      0.752300000000     0.225700000000     0.671590000000    -0.542665   
O380     O      0.751290000000     0.225720000000     0.583950000000    -0.54365    
O381     O      0.751550000000     0.277210000000     0.583950000000    -0.543532   
O382     O      0.750540000000     0.277250000000     0.671590000000    -0.542508   
O383     O      0.794920000000     0.277620000000     0.628170000000    -0.542763   
O384     O      0.707470000000     0.276810000000     0.627370000000    -0.544602   
O385     O      0.527600000000     0.957910000000     0.128160000000    -0.536287   
O386     O      0.526790000000     0.545360000000     0.127370000000    -0.544633   
O387     O      0.527220000000     0.002280000000     0.171580000000    -0.543483   
O388     O      0.527200000000     0.501290000000     0.083940000000    -0.543778   
O389     O      0.975700000000     0.001550000000     0.083930000000    -0.537313   
O390     O      0.975670000000     0.500520000000     0.171570000000    -0.536188   
O391     O      0.975290000000     0.544910000000     0.128170000000    -0.536371   
O392     O      0.976110000000     0.957460000000     0.127340000000    -0.531876   
O393     O      0.527600000000     0.794910000000     0.128170000000    -0.542743   
O394     O      0.526790000000     0.707460000000     0.127370000000    -0.544631   
O395     O      0.527210000000     0.751530000000     0.083950000000    -0.543463   
O396     O      0.527210000000     0.750530000000     0.171590000000    -0.542624   
O397     O      0.975670000000     0.752290000000     0.171580000000    -0.53627    
O398     O      0.975710000000     0.751280000000     0.083940000000    -0.537277   
O399     O      0.975290000000     0.707910000000     0.128170000000    -0.536337   
O400     O      0.976110000000     0.795360000000     0.127360000000    -0.538323   
O401     O      0.725700000000     0.957640000000     0.127370000000    -0.537825   
O402     O      0.725600000000     0.545090000000     0.128160000000    -0.542918   
O403     O      0.725650000000     0.001710000000     0.083940000000    -0.543641   
O404     O      0.725620000000     0.500710000000     0.171580000000    -0.542518   
O405     O      0.777180000000     0.002110000000     0.171580000000    -0.543363   
O406     O      0.777150000000     0.501150000000     0.083940000000    -0.543538   
O407     O      0.777100000000     0.545210000000     0.127390000000    -0.544116   
O408     O      0.777200000000     0.957750000000     0.128140000000    -0.536328   
O409     O      0.777150000000     0.751140000000     0.083950000000    -0.543445   
O410     O      0.777180000000     0.752120000000     0.171590000000    -0.542502   
O411     O      0.777190000000     0.707750000000     0.128160000000    -0.543029   
O412     O      0.777100000000     0.795210000000     0.127390000000    -0.544162   
O413     O      0.725600000000     0.795090000000     0.128150000000    -0.542743   
O414     O      0.725700000000     0.707630000000     0.127390000000    -0.544428   
O415     O      0.725620000000     0.750730000000     0.171590000000    -0.542575   
O416     O      0.725650000000     0.751700000000     0.083950000000    -0.543469   
O417     O      0.527210000000     0.001580000000     0.921020000000    -0.543718   
O418     O      0.527240000000     0.500560000000     0.833380000000    -0.542592   
O419     O      0.527620000000     0.544950000000     0.876790000000    -0.542669   
O420     O      0.526800000000     0.957500000000     0.877600000000    -0.538192   
O421     O      0.975310000000     0.957940000000     0.876800000000    -0.529862   
O422     O      0.976120000000     0.545390000000     0.877590000000    -0.53837    
O423     O      0.975690000000     0.002320000000     0.833380000000    -0.537288   
O424     O      0.975720000000     0.501320000000     0.921020000000    -0.537609   
O425     O      0.527210000000     0.751310000000     0.921030000000    -0.543815   
O426     O      0.527230000000     0.752330000000     0.833390000000    -0.542698   
O427     O      0.526800000000     0.795390000000     0.877610000000    -0.544668   
O428     O      0.527620000000     0.707940000000     0.876790000000    -0.542656   
O429     O      0.976120000000     0.707500000000     0.877600000000    -0.538507   
O430     O      0.975310000000     0.794950000000     0.876810000000    -0.536268   
O431     O      0.975680000000     0.750570000000     0.833390000000    -0.536164   
O432     O      0.975720000000     0.751570000000     0.921030000000    -0.537368   
O433     O      0.777110000000     0.957670000000     0.877590000000    -0.53781    
O434     O      0.777210000000     0.545130000000     0.876810000000    -0.542997   
O435     O      0.777160000000     0.001750000000     0.921020000000    -0.54354    
O436     O      0.777200000000     0.500750000000     0.833380000000    -0.542471   
O437     O      0.725630000000     0.002150000000     0.833380000000    -0.543425   
O438     O      0.725660000000     0.501180000000     0.921020000000    -0.543483   
O439     O      0.725710000000     0.545250000000     0.877570000000    -0.544275   
O440     O      0.725620000000     0.957790000000     0.876820000000    -0.536454   
O441     O      0.725710000000     0.795240000000     0.877600000000    -0.544381   
O442     O      0.725620000000     0.707790000000     0.876810000000    -0.542961   
O443     O      0.725660000000     0.751170000000     0.921030000000    -0.543558   
O444     O      0.725630000000     0.752160000000     0.833390000000    -0.542542   
O445     O      0.777190000000     0.750770000000     0.833390000000    -0.542645   
O446     O      0.777160000000     0.751740000000     0.921030000000    -0.543489   
O447     O      0.777110000000     0.707670000000     0.877590000000    -0.544452   
O448     O      0.777210000000     0.795130000000     0.876830000000    -0.542708   
O449     O      0.002110000000     0.527140000000     0.333380000000    -0.543595   
O450     O      0.501120000000     0.527100000000     0.421020000000    -0.543657   
O451     O      0.545190000000     0.527050000000     0.377580000000    -0.544681   
O452     O      0.957740000000     0.527150000000     0.376810000000    -0.53626    
O453     O      0.957620000000     0.975650000000     0.377570000000    -0.531557   
O454     O      0.545070000000     0.975560000000     0.376810000000    -0.536774   
O455     O      0.001690000000     0.975600000000     0.421020000000    -0.537418   
O456     O      0.500720000000     0.975580000000     0.333380000000    -0.536283   
O457     O      0.957450000000     0.776780000000     0.377600000000    -0.538151   
O458     O      0.544900000000     0.777600000000     0.376800000000    -0.542747   
O459     O      0.000520000000     0.777210000000     0.333390000000    -0.544454   
O460     O      0.501520000000     0.777200000000     0.421030000000    -0.543453   
O461     O      0.001260000000     0.725700000000     0.421030000000    -0.543782   
O462     O      0.502280000000     0.725660000000     0.333390000000    -0.542639   
O463     O      0.545340000000     0.726100000000     0.377610000000    -0.544653   
O464     O      0.957900000000     0.725290000000     0.376800000000    -0.536213   
O465     O      0.751700000000     0.975600000000     0.421020000000    -0.537273   
O466     O      0.750710000000     0.975580000000     0.333380000000    -0.536226   
O467     O      0.795080000000     0.975560000000     0.376800000000    -0.536669   
O468     O      0.707620000000     0.975650000000     0.377580000000    -0.537991   
O469     O      0.707740000000     0.527150000000     0.376820000000    -0.54295    
O470     O      0.795200000000     0.527050000000     0.377580000000    -0.544236   
O471     O      0.752100000000     0.527140000000     0.333380000000    -0.542619   
O472     O      0.751130000000     0.527100000000     0.421020000000    -0.543534   
O473     O      0.751270000000     0.777200000000     0.421030000000    -0.543546   
O474     O      0.752280000000     0.777220000000     0.333390000000    -0.542391   
O475     O      0.707890000000     0.777600000000     0.376800000000    -0.542635   
O476     O      0.795340000000     0.776780000000     0.377600000000    -0.544555   
O477     O      0.794900000000     0.725290000000     0.376800000000    -0.542598   
O478     O      0.707450000000     0.726100000000     0.377610000000    -0.544551   
O479     O      0.750510000000     0.725660000000     0.333390000000    -0.542434   
O480     O      0.751530000000     0.725700000000     0.421030000000    -0.543584   
O481     O      0.001700000000     0.527110000000     0.583930000000    -0.543821   
O482     O      0.500740000000     0.527170000000     0.671570000000    -0.54265    
O483     O      0.545090000000     0.527170000000     0.628130000000    -0.543046   
O484     O      0.957640000000     0.527080000000     0.627380000000    -0.537782   
O485     O      0.957760000000     0.975580000000     0.628160000000    -0.529927   
O486     O      0.545210000000     0.975670000000     0.627380000000    -0.538237   
O487     O      0.002130000000     0.975610000000     0.671590000000    -0.537218   
O488     O      0.501140000000     0.975620000000     0.583940000000    -0.537354   
O489     O      0.501540000000     0.725720000000     0.583950000000    -0.543556   
O490     O      0.000550000000     0.725690000000     0.671580000000    -0.544338   
O491     O      0.957470000000     0.726130000000     0.627370000000    -0.538134   
O492     O      0.544920000000     0.725310000000     0.628160000000    -0.542686   
O493     O      0.545370000000     0.776810000000     0.627360000000    -0.544494   
O494     O      0.957920000000     0.777620000000     0.628180000000    -0.53617    
O495     O      0.502310000000     0.777240000000     0.671580000000    -0.542654   
O496     O      0.001280000000     0.777220000000     0.583940000000    -0.543455   
O497     O      0.752120000000     0.975610000000     0.671590000000    -0.536221   
O498     O      0.751150000000     0.975620000000     0.583950000000    -0.537478   
O499     O      0.795210000000     0.975670000000     0.627390000000    -0.538069   
O500     O      0.707760000000     0.975580000000     0.628160000000    -0.536687   
O501     O      0.707640000000     0.527080000000     0.627370000000    -0.544243   
O502     O      0.795090000000     0.527170000000     0.628150000000    -0.543126   
O503     O      0.751710000000     0.527110000000     0.583930000000    -0.543703   
O504     O      0.750730000000     0.527170000000     0.671570000000    -0.542512   
O505     O      0.707920000000     0.725310000000     0.628180000000    -0.542695   
O506     O      0.795370000000     0.726130000000     0.627370000000    -0.544498   
O507     O      0.752300000000     0.725700000000     0.671590000000    -0.542649   
O508     O      0.751290000000     0.725720000000     0.583950000000    -0.543559   
O509     O      0.751550000000     0.777220000000     0.583950000000    -0.543295   
O510     O      0.750540000000     0.777250000000     0.671590000000    -0.542436   
O511     O      0.794920000000     0.777620000000     0.628170000000    -0.542709   
O512     O      0.707470000000     0.776810000000     0.627370000000    -0.544471   
V1       V      0.029270000000     0.501700000000     0.127760000000     1.37376    
V2       V      0.473630000000     0.001120000000     0.127750000000     1.37585    
V3       V      0.029270000000     0.251120000000     0.127770000000     1.37385    
V4       V      0.473630000000     0.251700000000     0.127760000000     1.38384    
V5       V      0.223580000000     0.501310000000     0.127760000000     1.38375    
V6       V      0.279220000000     0.001530000000     0.127760000000     1.3756     
V7       V      0.279220000000     0.251530000000     0.127770000000     1.38354    
V8       V      0.223580000000     0.251310000000     0.127770000000     1.38391    
V9       V      0.029290000000     0.001150000000     0.877200000000     1.36597    
V10      V      0.473640000000     0.001740000000     0.877200000000     1.37607    
V11      V      0.029290000000     0.251740000000     0.877210000000     1.37393    
V12      V      0.473640000000     0.251150000000     0.877210000000     1.38402    
V13      V      0.279240000000     0.501350000000     0.877200000000     1.38376    
V14      V      0.223590000000     0.001570000000     0.877200000000     1.3761     
V15      V      0.223590000000     0.251570000000     0.877210000000     1.38404    
V16      V      0.279240000000     0.251350000000     0.877210000000     1.3841     
V17      V      0.001520000000     0.029180000000     0.377200000000     1.36628    
V18      V      0.001300000000     0.473530000000     0.377200000000     1.37561    
V19      V      0.501110000000     0.279270000000     0.377200000000     1.38383    
V20      V      0.001690000000     0.223620000000     0.377210000000     1.37638    
V21      V      0.251300000000     0.473530000000     0.377200000000     1.38414    
V22      V      0.251520000000     0.029180000000     0.377200000000     1.37375    
V23      V      0.251690000000     0.279270000000     0.377210000000     1.384      
V24      V      0.251100000000     0.223620000000     0.377210000000     1.38399    
V25      V      0.001320000000     0.029200000000     0.627750000000     1.36603    
V26      V      0.001540000000     0.473550000000     0.627770000000     1.37586    
V27      V      0.501130000000     0.223650000000     0.627770000000     1.38406    
V28      V      0.501710000000     0.279290000000     0.627770000000     1.38368    
V29      V      0.251540000000     0.473550000000     0.627770000000     1.38413    
V30      V      0.251320000000     0.029200000000     0.627750000000     1.37403    
V31      V      0.251710000000     0.223650000000     0.627770000000     1.38394    
V32      V      0.251130000000     0.279290000000     0.627770000000     1.38387    
V33      V      0.029270000000     0.001700000000     0.127760000000     1.3659     
V34      V      0.473630000000     0.501120000000     0.127750000000     1.38382    
V35      V      0.029270000000     0.751120000000     0.127770000000     1.37388    
V36      V      0.473630000000     0.751700000000     0.127760000000     1.38386    
V37      V      0.223580000000     0.001310000000     0.127760000000     1.37587    
V38      V      0.279220000000     0.501530000000     0.127760000000     1.38381    
V39      V      0.279220000000     0.751530000000     0.127770000000     1.38364    
V40      V      0.223580000000     0.751310000000     0.127770000000     1.38363    
V41      V      0.029290000000     0.501150000000     0.877200000000     1.37391    
V42      V      0.473640000000     0.501740000000     0.877200000000     1.38396    
V43      V      0.029290000000     0.751740000000     0.877210000000     1.37396    
V44      V      0.473640000000     0.751150000000     0.877210000000     1.38405    
V45      V      0.279240000000     0.001350000000     0.877200000000     1.37605    
V46      V      0.223590000000     0.501570000000     0.877200000000     1.38373    
V47      V      0.223590000000     0.751570000000     0.877210000000     1.38413    
V48      V      0.279240000000     0.751350000000     0.877210000000     1.38381    
V49      V      0.001520000000     0.529180000000     0.377200000000     1.37618    
V50      V      0.001300000000     0.973530000000     0.377200000000     1.38092    
V51      V      0.501110000000     0.779270000000     0.377200000000     1.38402    
V52      V      0.001690000000     0.723620000000     0.377210000000     1.37625    
V53      V      0.251300000000     0.973530000000     0.377200000000     1.3894     
V54      V      0.251520000000     0.529180000000     0.377200000000     1.38363    
V55      V      0.251690000000     0.779270000000     0.377210000000     1.38409    
V56      V      0.251100000000     0.723620000000     0.377210000000     1.38377    
V57      V      0.001320000000     0.529200000000     0.627750000000     1.37593    
V58      V      0.001540000000     0.973550000000     0.627770000000     1.38118    
V59      V      0.501130000000     0.723650000000     0.627770000000     1.38389    
V60      V      0.501710000000     0.779290000000     0.627770000000     1.38382    
V61      V      0.251540000000     0.973550000000     0.627770000000     1.38938    
V62      V      0.251320000000     0.529200000000     0.627750000000     1.384      
V63      V      0.251710000000     0.723650000000     0.627770000000     1.38367    
V64      V      0.251130000000     0.779290000000     0.627770000000     1.38391    
V65      V      0.529270000000     0.501700000000     0.127760000000     1.38376    
V66      V      0.973630000000     0.001120000000     0.127750000000     1.38106    
V67      V      0.529270000000     0.251120000000     0.127770000000     1.38377    
V68      V      0.973630000000     0.251700000000     0.127760000000     1.38914    
V69      V      0.723580000000     0.501310000000     0.127760000000     1.38358    
V70      V      0.779220000000     0.001530000000     0.127760000000     1.37574    
V71      V      0.779220000000     0.251530000000     0.127770000000     1.38374    
V72      V      0.723580000000     0.251310000000     0.127770000000     1.38378    
V73      V      0.529290000000     0.001150000000     0.877200000000     1.37581    
V74      V      0.973640000000     0.001740000000     0.877200000000     1.38144    
V75      V      0.529290000000     0.251740000000     0.877210000000     1.38395    
V76      V      0.973640000000     0.251150000000     0.877210000000     1.38933    
V77      V      0.779240000000     0.501350000000     0.877200000000     1.38385    
V78      V      0.723590000000     0.001570000000     0.877200000000     1.37587    
V79      V      0.723590000000     0.251570000000     0.877210000000     1.38385    
V80      V      0.779240000000     0.251350000000     0.877210000000     1.38426    
V81      V      0.501520000000     0.029180000000     0.377200000000     1.374      
V82      V      0.501300000000     0.473530000000     0.377200000000     1.38399    
V83      V      0.001100000000     0.279270000000     0.377200000000     1.37576    
V84      V      0.501690000000     0.223620000000     0.377210000000     1.38419    
V85      V      0.751300000000     0.473530000000     0.377200000000     1.38385    
V86      V      0.751520000000     0.029180000000     0.377200000000     1.37386    
V87      V      0.751690000000     0.279270000000     0.377210000000     1.38402    
V88      V      0.751100000000     0.223620000000     0.377210000000     1.38402    
V89      V      0.501320000000     0.029200000000     0.627750000000     1.37406    
V90      V      0.501540000000     0.473550000000     0.627770000000     1.38367    
V91      V      0.001130000000     0.223650000000     0.627770000000     1.37599    
V92      V      0.001710000000     0.279290000000     0.627770000000     1.37588    
V93      V      0.751540000000     0.473550000000     0.627770000000     1.38416    
V94      V      0.751320000000     0.029200000000     0.627750000000     1.37406    
V95      V      0.751710000000     0.223650000000     0.627770000000     1.38397    
V96      V      0.751130000000     0.279290000000     0.627770000000     1.38391    
V97      V      0.529270000000     0.001700000000     0.127760000000     1.37586    
V98      V      0.973630000000     0.501120000000     0.127750000000     1.38902    
V99      V      0.529270000000     0.751120000000     0.127770000000     1.3838     
V100     V      0.973630000000     0.751700000000     0.127760000000     1.38916    
V101     V      0.723580000000     0.001310000000     0.127760000000     1.37569    
V102     V      0.779220000000     0.501530000000     0.127760000000     1.38395    
V103     V      0.779220000000     0.751530000000     0.127770000000     1.38384    
V104     V      0.723580000000     0.751310000000     0.127770000000     1.3835     
V105     V      0.529290000000     0.501150000000     0.877200000000     1.38379    
V106     V      0.973640000000     0.501740000000     0.877200000000     1.38932    
V107     V      0.529290000000     0.751740000000     0.877210000000     1.38398    
V108     V      0.973640000000     0.751150000000     0.877210000000     1.38935    
V109     V      0.779240000000     0.001350000000     0.877200000000     1.37615    
V110     V      0.723590000000     0.501570000000     0.877200000000     1.38351    
V111     V      0.723590000000     0.751570000000     0.877210000000     1.38395    
V112     V      0.779240000000     0.751350000000     0.877210000000     1.38397    
V113     V      0.501520000000     0.529180000000     0.377200000000     1.38393    
V114     V      0.501300000000     0.973530000000     0.377200000000     1.3893     
V115     V      0.001100000000     0.779270000000     0.377200000000     1.37595    
V116     V      0.501690000000     0.723620000000     0.377210000000     1.38406    
V117     V      0.751300000000     0.973530000000     0.377200000000     1.3891     
V118     V      0.751520000000     0.529180000000     0.377200000000     1.38374    
V119     V      0.751690000000     0.779270000000     0.377210000000     1.38411    
V120     V      0.751100000000     0.723620000000     0.377210000000     1.3838     
V121     V      0.501320000000     0.529200000000     0.627750000000     1.38399    
V122     V      0.501540000000     0.973550000000     0.627770000000     1.38898    
V123     V      0.001130000000     0.723650000000     0.627770000000     1.37582    
V124     V      0.001710000000     0.779290000000     0.627770000000     1.37602    
V125     V      0.751540000000     0.973550000000     0.627770000000     1.38941    
V126     V      0.751320000000     0.529200000000     0.627750000000     1.38403    
V127     V      0.751710000000     0.723650000000     0.627770000000     1.38371    
V128     V      0.751130000000     0.779290000000     0.627770000000     1.38395    


