data_structure

_audit_creation_method RASPA-1.0
_audit_creation_date 2023-5-22
_audit_author_name 'Poobodin Mano'

_cell_length_a    32.9655
_cell_length_b    32.9654
_cell_length_c    27.5937
_cell_angle_alpha 89.9977
_cell_angle_beta  90.0015
_cell_angle_gamma 89.9967
_cell_volume      29986.7

_symmetry_cell_setting          triclinic
_symmetry_space_group_name_Hall 'P 1'
_symmetry_space_group_name_H-M  'P 1'
_symmetry_Int_Tables_number     1

_symmetry_equiv_pos_as_xyz 'x,y,z'

loop_
_atom_site_label
_atom_site_type_symbol
_atom_site_fract_x
_atom_site_fract_y
_atom_site_fract_z
_atom_site_charge
C1       C      0.410600000000     0.286640000000     0.963690000000     0.425199   
C2       C      0.519070000000     0.286900000000     0.093100000000     0.424927   
C3       C      0.410530000000     0.286710000000     0.093020000000     0.425178   
C4       C      0.519140000000     0.286830000000     0.963770000000     0.425076   
C5       C      0.191120000000     0.614620000000     0.963420000000     0.425201   
C6       C      0.190990000000     0.506180000000     0.092860000000     0.425298   
C7       C      0.191080000000     0.614720000000     0.092740000000     0.4252     
C8       C      0.191040000000     0.506080000000     0.963530000000     0.425169   
C9       C      0.410950000000     0.834550000000     0.963390000000     0.42512    
C10      C      0.519430000000     0.834810000000     0.092800000000     0.425273   
C11      C      0.410890000000     0.834620000000     0.092710000000     0.425228   
C12      C      0.519500000000     0.834740000000     0.963470000000     0.42519    
C13      C      0.738910000000     0.506830000000     0.093070000000     0.425187   
C14      C      0.739040000000     0.615280000000     0.963620000000     0.42517    
C15      C      0.738950000000     0.506740000000     0.963750000000     0.425197   
C16      C      0.738990000000     0.615370000000     0.092960000000     0.425287   
C17      C      0.238910000000     0.114710000000     0.463530000000     0.425398   
C18      C      0.239040000000     0.006080000000     0.592760000000     0.425      
C19      C      0.238950000000     0.114630000000     0.592840000000     0.425361   
C20      C      0.239000000000     0.006160000000     0.463420000000     0.425242   
C21      C      0.910900000000     0.786890000000     0.463460000000     0.425053   
C22      C      0.019490000000     0.786650000000     0.592720000000     0.425022   
C23      C      0.910950000000     0.786830000000     0.592780000000     0.425032   
C24      C      0.019440000000     0.786710000000     0.463390000000     0.424969   
C25      C      0.691120000000     0.006750000000     0.592960000000     0.425378   
C26      C      0.690990000000     0.115370000000     0.463730000000     0.425155   
C27      C      0.691080000000     0.006830000000     0.463640000000     0.425252   
C28      C      0.691030000000     0.115290000000     0.593060000000     0.425413   
C29      C      0.910530000000     0.334800000000     0.463760000000     0.425076   
C30      C      0.019130000000     0.334560000000     0.593030000000     0.424909   
C31      C      0.910590000000     0.334740000000     0.593090000000     0.425113   
C32      C      0.019080000000     0.334620000000     0.463700000000     0.424892   
C33      C      0.201250000000     0.372960000000     0.227680000000     0.425081   
C34      C      0.228350000000     0.248120000000     0.329020000000     0.425165   
C35      C      0.277210000000     0.297010000000     0.227670000000     0.425082   
C36      C      0.152380000000     0.324090000000     0.329040000000     0.425217   
C37      C      0.777240000000     0.324630000000     0.329060000000     0.425086   
C38      C      0.652410000000     0.297540000000     0.227700000000     0.425173   
C39      C      0.701280000000     0.248680000000     0.329050000000     0.424948   
C40      C      0.728370000000     0.373510000000     0.227700000000     0.425158   
C41      C      0.652510000000     0.297370000000     0.829210000000     0.425203   
C42      C      0.777330000000     0.324470000000     0.727850000000     0.425099   
C43      C      0.728470000000     0.373340000000     0.829210000000     0.42503    
C44      C      0.701380000000     0.248520000000     0.727840000000     0.425045   
C45      C      0.777500000000     0.797550000000     0.328950000000     0.425214   
C46      C      0.652660000000     0.824660000000     0.227600000000     0.425055   
C47      C      0.701530000000     0.873520000000     0.328970000000     0.425442   
C48      C      0.728620000000     0.748700000000     0.227600000000     0.425094   
C49      C      0.701670000000     0.873330000000     0.727470000000     0.425145   
C50      C      0.728780000000     0.748490000000     0.828800000000     0.425279   
C51      C      0.777650000000     0.797360000000     0.727440000000     0.42516    
C52      C      0.652820000000     0.824440000000     0.828810000000     0.425142   
C53      C      0.152690000000     0.796980000000     0.328640000000     0.425198   
C54      C      0.277520000000     0.824080000000     0.227280000000     0.425313   
C55      C      0.228650000000     0.872930000000     0.328640000000     0.425044   
C56      C      0.201550000000     0.748110000000     0.227280000000     0.425142   
C57      C      0.277620000000     0.823910000000     0.828790000000     0.425016   
C58      C      0.152790000000     0.796830000000     0.727430000000     0.425215   
C59      C      0.201650000000     0.747940000000     0.828780000000     0.425232   
C60      C      0.228750000000     0.872770000000     0.727430000000     0.425088   
C61      C      0.277370000000     0.296800000000     0.828880000000     0.425117   
C62      C      0.152530000000     0.323900000000     0.727540000000     0.425127   
C63      C      0.201410000000     0.372750000000     0.828890000000     0.425226   
C64      C      0.228500000000     0.247920000000     0.727520000000     0.425205   
C65      C      0.081050000000     0.364590000000     0.631520000000     0.000506578
C66      C      0.051580000000     0.333830000000     0.629860000000    -0.106061   
C67      C      0.054410000000     0.301130000000     0.662280000000     0.000850885
C68      C      0.086430000000     0.298840000000     0.695270000000     0.000238785
C69      C      0.116800000000     0.328730000000     0.695750000000    -0.105962   
C70      C      0.113700000000     0.361800000000     0.663790000000     0.000459565
C71      C      0.054310000000     0.301260000000     0.394370000000     0.000869416
C72      C      0.051490000000     0.333940000000     0.426830000000    -0.106136   
C73      C      0.080950000000     0.364700000000     0.425160000000     0.000522964
C74      C      0.113570000000     0.361940000000     0.392850000000     0.000482998
C75      C      0.116660000000     0.328900000000     0.360860000000    -0.105998   
C76      C      0.086300000000     0.299000000000     0.361340000000     0.000198558
C77      C      0.848700000000     0.365030000000     0.425270000000     0.00058392 
C78      C      0.878120000000     0.334220000000     0.426890000000    -0.106603   
C79      C      0.875260000000     0.301590000000     0.394380000000     0.000898918
C80      C      0.843280000000     0.299420000000     0.361330000000    -2.72002e-05
C81      C      0.812950000000     0.329360000000     0.360900000000    -0.106027   
C82      C      0.816080000000     0.362360000000     0.392950000000     0.000293976
C83      C      0.875340000000     0.301470000000     0.662460000000     0.000834506
C84      C      0.878190000000     0.334130000000     0.629990000000    -0.106473   
C85      C      0.848790000000     0.364950000000     0.631660000000     0.000542421
C86      C      0.816170000000     0.362250000000     0.664000000000     0.000292205
C87      C      0.813050000000     0.329220000000     0.696010000000    -0.105927   
C88      C      0.843370000000     0.299280000000     0.695520000000     1.76302e-05
C89      C      0.660860000000     0.177090000000     0.631660000000     0.000607228
C90      C      0.691670000000     0.147680000000     0.629970000000    -0.106482   
C91      C      0.724340000000     0.150520000000     0.662430000000     0.000950321
C92      C      0.726550000000     0.182490000000     0.695490000000     2.62062e-05
C93      C      0.696610000000     0.212810000000     0.696000000000    -0.105922   
C94      C      0.663570000000     0.209700000000     0.664010000000     0.000331617
C95      C      0.660810000000     0.177220000000     0.425230000000     0.000572892
C96      C      0.691610000000     0.147790000000     0.426860000000    -0.106403   
C97      C      0.724260000000     0.150640000000     0.394370000000     0.000880837
C98      C      0.726450000000     0.182620000000     0.361340000000     2.04326e-05
C99      C      0.696520000000     0.212960000000     0.360890000000    -0.105871   
C100     C      0.663510000000     0.209850000000     0.392920000000     0.000298314
C101     C      0.660960000000     0.944970000000     0.425100000000     0.000498873
C102     C      0.691740000000     0.974410000000     0.426760000000    -0.106277   
C103     C      0.724410000000     0.971590000000     0.394290000000     0.000773029
C104     C      0.726640000000     0.939600000000     0.361260000000     0.000170456
C105     C      0.696740000000     0.909240000000     0.360790000000    -0.106124   
C106     C      0.663700000000     0.912340000000     0.392790000000     0.000422732
C107     C      0.724490000000     0.971450000000     0.662230000000     0.000876983
C108     C      0.691810000000     0.974290000000     0.629790000000    -0.106315   
C109     C      0.661040000000     0.944830000000     0.631420000000     0.000498041
C110     C      0.663820000000     0.912180000000     0.663690000000     0.000434958
C111     C      0.696860000000     0.909060000000     0.695670000000    -0.105997   
C112     C      0.726760000000     0.939430000000     0.695220000000     7.56327e-05
C113     C      0.054690000000     0.819980000000     0.394020000000     0.000872565
C114     C      0.051840000000     0.787320000000     0.426500000000    -0.106118   
C115     C      0.081240000000     0.756500000000     0.424820000000     0.000527169
C116     C      0.113860000000     0.759200000000     0.392490000000     0.000477892
C117     C      0.116980000000     0.792230000000     0.360480000000    -0.106018   
C118     C      0.086660000000     0.822170000000     0.360970000000     0.000250481
C119     C      0.054760000000     0.819860000000     0.662110000000     0.000865839
C120     C      0.051910000000     0.787230000000     0.629600000000    -0.106046   
C121     C      0.081330000000     0.756420000000     0.631210000000     0.00051259 
C122     C      0.113950000000     0.759090000000     0.663530000000     0.000483861
C123     C      0.117080000000     0.792090000000     0.695590000000    -0.105996   
C124     C      0.086750000000     0.822030000000     0.695150000000     0.000250538
C125     C      0.875720000000     0.820190000000     0.662110000000     0.000878233
C126     C      0.878540000000     0.787520000000     0.629660000000    -0.106483   
C127     C      0.849080000000     0.756750000000     0.631330000000     0.000496603
C128     C      0.816450000000     0.759510000000     0.663640000000     0.000374971
C129     C      0.813360000000     0.792550000000     0.695620000000    -0.106074   
C130     C      0.843730000000     0.822450000000     0.695150000000    -5.40502e-06
C131     C      0.875620000000     0.820320000000     0.394210000000     0.000766896
C132     C      0.878450000000     0.787620000000     0.426630000000    -0.106452   
C133     C      0.848980000000     0.756860000000     0.424970000000     0.000480912
C134     C      0.816330000000     0.759650000000     0.392690000000     0.000364265
C135     C      0.813230000000     0.792720000000     0.360740000000    -0.106119   
C136     C      0.843600000000     0.822610000000     0.361220000000     7.04136e-05
C137     C      0.205530000000     0.150000000000     0.394250000000     0.000876024
C138     C      0.238220000000     0.147160000000     0.426700000000    -0.106436   
C139     C      0.268980000000     0.176620000000     0.425060000000     0.000594208
C140     C      0.266210000000     0.209280000000     0.392800000000     0.000344228
C141     C      0.233160000000     0.212390000000     0.360820000000    -0.10598    
C142     C      0.203270000000     0.182020000000     0.361260000000     0.000116139
C143     C      0.205620000000     0.149860000000     0.662190000000     0.000858371
C144     C      0.238290000000     0.147040000000     0.629720000000    -0.106389   
C145     C      0.269070000000     0.176480000000     0.631390000000     0.000548151
C146     C      0.266320000000     0.209110000000     0.663700000000     0.000442038
C147     C      0.233290000000     0.212210000000     0.695700000000    -0.106088   
C148     C      0.203390000000     0.181850000000     0.695230000000     0.000184031
C149     C      0.269220000000     0.944230000000     0.631260000000     0.000570418
C150     C      0.238420000000     0.973660000000     0.629620000000    -0.106298   
C151     C      0.205770000000     0.970810000000     0.662110000000     0.000896054
C152     C      0.203580000000     0.938830000000     0.695150000000     0.000127689
C153     C      0.233510000000     0.908490000000     0.695600000000    -0.105938   
C154     C      0.266520000000     0.911600000000     0.663570000000     0.000355569
C155     C      0.269170000000     0.944360000000     0.424820000000     0.000637816
C156     C      0.238360000000     0.973770000000     0.426520000000    -0.106426   
C157     C      0.205690000000     0.970930000000     0.394060000000     0.000991229
C158     C      0.203480000000     0.938970000000     0.360990000000     8.44056e-07
C159     C      0.233420000000     0.908640000000     0.360490000000    -0.105843   
C160     C      0.266460000000     0.911750000000     0.392480000000     0.000286873
C161     C      0.766240000000     0.412340000000     0.163930000000     0.000339336
C162     C      0.733180000000     0.409230000000     0.195890000000    -0.106092   
C163     C      0.703280000000     0.439590000000     0.195400000000     0.000116833
C164     C      0.705530000000     0.471590000000     0.162380000000     0.000846008
C165     C      0.738220000000     0.474420000000     0.129940000000    -0.106518   
C166     C      0.769000000000     0.444970000000     0.131620000000     0.000477537
C167     C      0.703460000000     0.682650000000     0.195300000000     2.12627e-05
C168     C      0.733390000000     0.712990000000     0.195770000000    -0.106033   
C169     C      0.766420000000     0.709870000000     0.163770000000     0.000297858
C170     C      0.769150000000     0.677230000000     0.131460000000     0.000506715
C171     C      0.738350000000     0.647800000000     0.129810000000    -0.106528   
C172     C      0.705680000000     0.650660000000     0.162270000000     0.00090885 
C173     C      0.705780000000     0.650500000000     0.894210000000     0.000889068
C174     C      0.738430000000     0.647660000000     0.926710000000    -0.106334   
C175     C      0.769250000000     0.677070000000     0.925030000000     0.00051282 
C176     C      0.766550000000     0.709670000000     0.892670000000     0.000467714
C177     C      0.733540000000     0.712780000000     0.860650000000    -0.106034   
C178     C      0.703600000000     0.682460000000     0.861140000000     0.000138414
C179     C      0.769050000000     0.444820000000     0.925300000000     0.000550415
C180     C      0.738290000000     0.474290000000     0.926920000000    -0.106285   
C181     C      0.705620000000     0.471450000000     0.894440000000     0.000864652
C182     C      0.703380000000     0.439440000000     0.861440000000     0.00010683 
C183     C      0.733270000000     0.409070000000     0.861010000000    -0.105952   
C184     C      0.766300000000     0.412170000000     0.893020000000     0.000359307
C185     C      0.581220000000     0.865060000000     0.131350000000     0.000578901
C186     C      0.551820000000     0.834240000000     0.129700000000    -0.106533   
C187     C      0.554670000000     0.801600000000     0.162220000000     0.00092006 
C188     C      0.586630000000     0.799440000000     0.195300000000     7.03477e-06
C189     C      0.616950000000     0.829390000000     0.195750000000    -0.105946   
C190     C      0.613830000000     0.862390000000     0.163700000000     0.000274749
C191     C      0.375630000000     0.801260000000     0.162020000000     0.000864431
C192     C      0.378450000000     0.833930000000     0.129550000000    -0.10645    
C193     C      0.348980000000     0.864690000000     0.131190000000     0.000500887
C194     C      0.316340000000     0.861920000000     0.163470000000     0.000420274
C195     C      0.313240000000     0.828890000000     0.195470000000    -0.10612    
C196     C      0.343620000000     0.799000000000     0.195020000000     0.00010323 
C197     C      0.349070000000     0.864600000000     0.924830000000     0.000576969
C198     C      0.378530000000     0.833840000000     0.926530000000    -0.106277   
C199     C      0.375710000000     0.801120000000     0.894120000000     0.000852982
C200     C      0.343710000000     0.798840000000     0.861100000000     0.000127422
C201     C      0.313340000000     0.828740000000     0.860590000000    -0.10596    
C202     C      0.316440000000     0.861810000000     0.892530000000     0.00045961 
C203     C      0.554790000000     0.801460000000     0.894130000000     0.000897439
C204     C      0.551920000000     0.834120000000     0.926610000000    -0.106295   
C205     C      0.581340000000     0.864930000000     0.924960000000     0.000556593
C206     C      0.613970000000     0.862220000000     0.892660000000     0.000457791
C207     C      0.617110000000     0.829200000000     0.860640000000    -0.106      
C208     C      0.586780000000     0.799260000000     0.861100000000     0.000129598
C209     C      0.160980000000     0.676630000000     0.131180000000     0.00059472 
C210     C      0.191740000000     0.647160000000     0.129570000000    -0.106481   
C211     C      0.224410000000     0.650000000000     0.162050000000     0.000893034
C212     C      0.226650000000     0.682010000000     0.195040000000     7.38009e-05
C213     C      0.196760000000     0.712380000000     0.195470000000    -0.105951   
C214     C      0.163730000000     0.709280000000     0.163460000000     0.000339713
C215     C      0.224250000000     0.470950000000     0.162270000000     0.000858046
C216     C      0.191590000000     0.473790000000     0.129780000000    -0.10638    
C217     C      0.160780000000     0.444380000000     0.131460000000     0.000569216
C218     C      0.163470000000     0.411780000000     0.163810000000     0.00034621 
C219     C      0.196490000000     0.408670000000     0.195830000000    -0.105934   
C220     C      0.226430000000     0.438990000000     0.195350000000     7.18017e-05
C221     C      0.224350000000     0.470790000000     0.894210000000     0.000851696
C222     C      0.191680000000     0.473650000000     0.926680000000    -0.106213   
C223     C      0.160880000000     0.444220000000     0.925020000000     0.000571507
C224     C      0.163610000000     0.411590000000     0.892720000000     0.000534164
C225     C      0.196640000000     0.408460000000     0.860720000000    -0.106028   
C226     C      0.226560000000     0.438800000000     0.861180000000     0.000201266
C227     C      0.224500000000     0.649860000000     0.894110000000     0.000887129
C228     C      0.191810000000     0.647030000000     0.926550000000    -0.106282   
C229     C      0.161030000000     0.676480000000     0.924860000000     0.000631353
C230     C      0.163790000000     0.709110000000     0.892560000000     0.000474691
C231     C      0.196850000000     0.712220000000     0.860590000000    -0.105979   
C232     C      0.226750000000     0.681860000000     0.861080000000     0.000171752
C233     C      0.375240000000     0.319990000000     0.162350000000     0.000864438
C234     C      0.378100000000     0.287330000000     0.129880000000    -0.106411   
C235     C      0.348690000000     0.256520000000     0.131520000000     0.000472878
C236     C      0.316060000000     0.259230000000     0.163830000000     0.000397349
C237     C      0.312920000000     0.292250000000     0.195840000000    -0.106054   
C238     C      0.343250000000     0.322190000000     0.195380000000     7.98805e-05
C239     C      0.586320000000     0.322610000000     0.195390000000     0.000102027
C240     C      0.616690000000     0.292710000000     0.195900000000    -0.106075   
C241     C      0.613590000000     0.259640000000     0.163950000000     0.0003753  
C242     C      0.580960000000     0.256850000000     0.131660000000     0.000440921
C243     C      0.551500000000     0.287620000000     0.129960000000    -0.106297   
C244     C      0.554320000000     0.320330000000     0.162370000000     0.00078659 
C245     C      0.586410000000     0.322450000000     0.861460000000     0.000171334
C246     C      0.616790000000     0.292560000000     0.861010000000    -0.106098   
C247     C      0.613690000000     0.259530000000     0.893010000000     0.000535598
C248     C      0.581050000000     0.256760000000     0.925300000000     0.000490779
C249     C      0.551580000000     0.287520000000     0.926930000000    -0.106229   
C250     C      0.554400000000     0.320190000000     0.894470000000     0.000860417
C251     C      0.375360000000     0.319850000000     0.894260000000     0.000910184
C252     C      0.378210000000     0.287220000000     0.926780000000    -0.106262   
C253     C      0.348810000000     0.256390000000     0.925130000000     0.000563081
C254     C      0.316200000000     0.259060000000     0.892780000000     0.000418122
C255     C      0.313080000000     0.292060000000     0.860730000000    -0.105911   
C256     C      0.343400000000     0.322010000000     0.861190000000     7.92348e-05
H1       H      0.079640000000     0.390050000000     0.606750000000     0.0366005  
H2       H      0.031990000000     0.277110000000     0.661910000000     0.0362329  
H3       H      0.088120000000     0.272880000000     0.719260000000     0.0369207  
H4       H      0.136660000000     0.385300000000     0.663480000000     0.037298   
H5       H      0.031890000000     0.277230000000     0.394740000000     0.036195   
H6       H      0.079550000000     0.390140000000     0.449960000000     0.0365889  
H7       H      0.136530000000     0.385450000000     0.393170000000     0.0372696  
H8       H      0.087980000000     0.273060000000     0.337320000000     0.0368723  
H9       H      0.850130000000     0.390440000000     0.450120000000     0.0363439  
H10      H      0.897660000000     0.277530000000     0.394700000000     0.0356385  
H11      H      0.841570000000     0.273510000000     0.337270000000     0.0366793  
H12      H      0.793150000000     0.385900000000     0.393300000000     0.0372023  
H13      H      0.897720000000     0.277400000000     0.662090000000     0.035688   
H14      H      0.850210000000     0.390380000000     0.606850000000     0.0363706  
H15      H      0.793250000000     0.385800000000     0.663690000000     0.0372129  
H16      H      0.841660000000     0.273340000000     0.719550000000     0.0367053  
H17      H      0.635420000000     0.175680000000     0.606860000000     0.0364244  
H18      H      0.748410000000     0.128130000000     0.662040000000     0.0358286  
H19      H      0.752490000000     0.184190000000     0.719510000000     0.0367582  
H20      H      0.640030000000     0.232630000000     0.663710000000     0.0372492  
H21      H      0.635390000000     0.175800000000     0.450060000000     0.0364213  
H22      H      0.748310000000     0.128240000000     0.394710000000     0.0358247  
H23      H      0.752380000000     0.184330000000     0.337290000000     0.0367179  
H24      H      0.639980000000     0.232780000000     0.393260000000     0.0372521  
H25      H      0.635530000000     0.946370000000     0.449910000000     0.0364729  
H26      H      0.748450000000     0.994000000000     0.394650000000     0.0358723  
H27      H      0.752580000000     0.937910000000     0.337230000000     0.0366788  
H28      H      0.640180000000     0.889400000000     0.393110000000     0.0372265  
H29      H      0.748520000000     0.993870000000     0.661890000000     0.0358818  
H30      H      0.635600000000     0.946250000000     0.606630000000     0.0364825  
H31      H      0.640310000000     0.889220000000     0.663350000000     0.0372282  
H32      H      0.752700000000     0.937730000000     0.719240000000     0.0367728  
H33      H      0.032310000000     0.844060000000     0.394400000000     0.0361786  
H34      H      0.079820000000     0.731070000000     0.449630000000     0.0365708  
H35      H      0.136780000000     0.735650000000     0.392800000000     0.0372639  
H36      H      0.088370000000     0.848110000000     0.336940000000     0.0368698  
H37      H      0.032370000000     0.843920000000     0.661780000000     0.0362207  
H38      H      0.079900000000     0.731010000000     0.606360000000     0.0365739  
H39      H      0.136880000000     0.735550000000     0.663180000000     0.0372766  
H40      H      0.088460000000     0.847940000000     0.719220000000     0.0369348  
H41      H      0.898140000000     0.844230000000     0.661750000000     0.0356846  
H42      H      0.850480000000     0.731310000000     0.606530000000     0.036408   
H43      H      0.793500000000     0.736000000000     0.663320000000     0.0372002  
H44      H      0.842050000000     0.848390000000     0.719170000000     0.0367102  
H45      H      0.898040000000     0.844340000000     0.394570000000     0.0356866  
H46      H      0.850390000000     0.731400000000     0.449740000000     0.0364014  
H47      H      0.793370000000     0.736150000000     0.393010000000     0.0371979  
H48      H      0.841910000000     0.848570000000     0.337220000000     0.0366348  
H49      H      0.181510000000     0.127580000000     0.394590000000     0.0359687  
H50      H      0.294420000000     0.175200000000     0.449860000000     0.0364341  
H51      H      0.289720000000     0.232230000000     0.393140000000     0.0372396  
H52      H      0.177320000000     0.183720000000     0.337250000000     0.0368328  
H53      H      0.181590000000     0.127450000000     0.661830000000     0.0360061  
H54      H      0.294500000000     0.175080000000     0.606570000000     0.0364537  
H55      H      0.289840000000     0.232060000000     0.663370000000     0.0372243  
H56      H      0.177450000000     0.183540000000     0.719260000000     0.036861   
H57      H      0.294640000000     0.945650000000     0.606420000000     0.0364546  
H58      H      0.181720000000     0.993210000000     0.661770000000     0.0360251  
H59      H      0.177650000000     0.937120000000     0.719200000000     0.0368914  
H60      H      0.290050000000     0.888670000000     0.663230000000     0.037252   
H61      H      0.294610000000     0.945770000000     0.449630000000     0.0364363  
H62      H      0.181620000000     0.993320000000     0.394450000000     0.0359582  
H63      H      0.177540000000     0.937270000000     0.336970000000     0.0368643  
H64      H      0.290000000000     0.888830000000     0.392780000000     0.0372574  
H65      H      0.789760000000     0.389390000000     0.163620000000     0.037064   
H66      H      0.677320000000     0.437900000000     0.219410000000     0.0367434  
H67      H      0.681490000000     0.494000000000     0.162000000000     0.0358695  
H68      H      0.794450000000     0.446380000000     0.106840000000     0.0362419  
H69      H      0.677530000000     0.684360000000     0.219330000000     0.0367893  
H70      H      0.789950000000     0.732800000000     0.163440000000     0.0370708  
H71      H      0.794580000000     0.675810000000     0.106650000000     0.0362223  
H72      H      0.681630000000     0.628260000000     0.161920000000     0.0358565  
H73      H      0.681710000000     0.628110000000     0.894590000000     0.035951   
H74      H      0.794670000000     0.675650000000     0.949860000000     0.0365148  
H75      H      0.790100000000     0.732590000000     0.892980000000     0.0371889  
H76      H      0.677670000000     0.684160000000     0.837100000000     0.0368028  
H77      H      0.794470000000     0.446230000000     0.950120000000     0.0365048  
H78      H      0.681590000000     0.493880000000     0.894760000000     0.0359625  
H79      H      0.677450000000     0.437750000000     0.837410000000     0.03682    
H80      H      0.789800000000     0.389210000000     0.893380000000     0.0372293  
H81      H      0.579800000000     0.890460000000     0.106500000000     0.0363034  
H82      H      0.532290000000     0.777530000000     0.161870000000     0.0358592  
H83      H      0.588340000000     0.773530000000     0.219360000000     0.0368044  
H84      H      0.636750000000     0.885930000000     0.163370000000     0.0371717  
H85      H      0.398060000000     0.777230000000     0.161680000000     0.0358804  
H86      H      0.350380000000     0.890130000000     0.106380000000     0.0363569  
H87      H      0.293370000000     0.885430000000     0.163130000000     0.0371803  
H88      H      0.341940000000     0.773060000000     0.219050000000     0.0367637  
H89      H      0.350480000000     0.890060000000     0.949590000000     0.0366422  
H90      H      0.398130000000     0.777090000000     0.894510000000     0.0359824  
H91      H      0.342020000000     0.772880000000     0.837110000000     0.0368083  
H92      H      0.293480000000     0.885320000000     0.892830000000     0.0373399  
H93      H      0.532400000000     0.777400000000     0.894480000000     0.0359634  
H94      H      0.579910000000     0.890350000000     0.949780000000     0.0365881  
H95      H      0.636900000000     0.885760000000     0.892980000000     0.0372813  
H96      H      0.588490000000     0.773330000000     0.837070000000     0.0368206  
H97      H      0.135550000000     0.675220000000     0.106370000000     0.0364324  
H98      H      0.248440000000     0.627570000000     0.161720000000     0.0358785  
H99      H      0.252580000000     0.683700000000     0.219080000000     0.0367858  
H100     H      0.140220000000     0.732240000000     0.163100000000     0.0372918  
H101     H      0.248310000000     0.493340000000     0.161900000000     0.0358841  
H102     H      0.135360000000     0.445800000000     0.106630000000     0.03645    
H103     H      0.139930000000     0.388860000000     0.163500000000     0.0372905  
H104     H      0.252360000000     0.437290000000     0.219390000000     0.0367808  
H105     H      0.248400000000     0.493190000000     0.894570000000     0.0359888  
H106     H      0.135450000000     0.445640000000     0.949830000000     0.0367194  
H107     H      0.140080000000     0.388650000000     0.893050000000     0.0374058  
H108     H      0.252500000000     0.437090000000     0.837160000000     0.0368034  
H109     H      0.248540000000     0.627450000000     0.894490000000     0.0359747  
H110     H      0.135580000000     0.675070000000     0.949650000000     0.0367265  
H111     H      0.140270000000     0.732060000000     0.892870000000     0.0374165  
H112     H      0.252700000000     0.683550000000     0.837080000000     0.0368145  
H113     H      0.397630000000     0.344050000000     0.162000000000     0.0358717  
H114     H      0.350120000000     0.231100000000     0.106710000000     0.0363358  
H115     H      0.293130000000     0.235690000000     0.163500000000     0.0371732  
H116     H      0.341530000000     0.348120000000     0.219420000000     0.0367745  
H117     H      0.588010000000     0.348570000000     0.219370000000     0.036765   
H118     H      0.636540000000     0.236130000000     0.163660000000     0.0371439  
H119     H      0.579560000000     0.231390000000     0.106890000000     0.0363556  
H120     H      0.531900000000     0.344360000000     0.161980000000     0.0359039  
H121     H      0.588090000000     0.348390000000     0.837440000000     0.0368028  
H122     H      0.636660000000     0.236020000000     0.893350000000     0.0372551  
H123     H      0.579650000000     0.231330000000     0.950110000000     0.0366183  
H124     H      0.531970000000     0.344220000000     0.894810000000     0.0359766  
H125     H      0.397740000000     0.343920000000     0.894610000000     0.0359554  
H126     H      0.350230000000     0.230990000000     0.949980000000     0.036607   
H127     H      0.293280000000     0.235520000000     0.893120000000     0.0373391  
H128     H      0.341690000000     0.347920000000     0.837130000000     0.0368344  
O1       O      0.423930000000     0.252630000000     0.979850000000    -0.538305   
O2       O      0.505860000000     0.252820000000     0.076990000000    -0.538698   
O3       O      0.423880000000     0.252680000000     0.076930000000    -0.53876    
O4       O      0.505910000000     0.252770000000     0.979920000000    -0.538261   
O5       O      0.505320000000     0.320660000000     0.979730000000    -0.546122   
O6       O      0.424230000000     0.320570000000     0.077010000000    -0.546747   
O7       O      0.505270000000     0.320720000000     0.077070000000    -0.546651   
O8       O      0.424280000000     0.320520000000     0.979670000000    -0.546166   
O9       O      0.157060000000     0.601380000000     0.979540000000    -0.53825    
O10      O      0.156960000000     0.519470000000     0.076700000000    -0.538805   
O11      O      0.157030000000     0.601450000000     0.076610000000    -0.538798   
O12      O      0.157000000000     0.519400000000     0.979630000000    -0.538189   
O13      O      0.224890000000     0.519810000000     0.979530000000    -0.546205   
O14      O      0.224920000000     0.600920000000     0.076780000000    -0.54675    
O15      O      0.224850000000     0.519880000000     0.076870000000    -0.54688    
O16      O      0.224950000000     0.600850000000     0.979450000000    -0.546201   
O17      O      0.424760000000     0.800740000000     0.979420000000    -0.546213   
O18      O      0.505750000000     0.800930000000     0.076820000000    -0.546766   
O19      O      0.424710000000     0.800790000000     0.076760000000    -0.546777   
O20      O      0.505790000000     0.800880000000     0.979480000000    -0.546275   
O21      O      0.506150000000     0.868770000000     0.979560000000    -0.538279   
O22      O      0.424120000000     0.868680000000     0.076570000000    -0.538823   
O23      O      0.506100000000     0.868820000000     0.076630000000    -0.538867   
O24      O      0.424170000000     0.868630000000     0.979500000000    -0.538241   
O25      O      0.705080000000     0.520600000000     0.077040000000    -0.546768   
O26      O      0.705180000000     0.601570000000     0.979620000000    -0.546263   
O27      O      0.705110000000     0.520530000000     0.979710000000    -0.54625    
O28      O      0.705140000000     0.601640000000     0.076960000000    -0.546832   
O29      O      0.773030000000     0.602060000000     0.076860000000    -0.538865   
O30      O      0.773000000000     0.520000000000     0.979870000000    -0.538217   
O31      O      0.773070000000     0.601980000000     0.979780000000    -0.53827    
O32      O      0.772970000000     0.520080000000     0.076950000000    -0.538853   
O33      O      0.205080000000     0.100910000000     0.479520000000    -0.547036   
O34      O      0.205170000000     0.019820000000     0.576790000000    -0.546668   
O35      O      0.205110000000     0.100860000000     0.576860000000    -0.546861   
O36      O      0.205140000000     0.019880000000     0.479450000000    -0.546774   
O37      O      0.273030000000     0.019460000000     0.479550000000    -0.539015   
O38      O      0.273000000000     0.101380000000     0.576690000000    -0.538974   
O39      O      0.273070000000     0.019400000000     0.576620000000    -0.538891   
O40      O      0.272970000000     0.101440000000     0.479620000000    -0.538992   
O41      O      0.924130000000     0.752820000000     0.479560000000    -0.538731   
O42      O      0.006150000000     0.752630000000     0.576580000000    -0.537665   
O43      O      0.924170000000     0.752770000000     0.576630000000    -0.538654   
O44      O      0.006110000000     0.752680000000     0.479510000000    -0.537627   
O45      O      0.005750000000     0.820570000000     0.479420000000    -0.545682   
O46      O      0.924760000000     0.820660000000     0.576800000000    -0.546674   
O47      O      0.005790000000     0.820520000000     0.576750000000    -0.545754   
O48      O      0.924710000000     0.820710000000     0.479470000000    -0.546651   
O49      O      0.657060000000     0.020010000000     0.576870000000    -0.539045   
O50      O      0.656960000000     0.102050000000     0.479860000000    -0.538893   
O51      O      0.657030000000     0.020080000000     0.479790000000    -0.538993   
O52      O      0.657000000000     0.101990000000     0.576940000000    -0.539095   
O53      O      0.724890000000     0.101570000000     0.577040000000    -0.546949   
O54      O      0.724920000000     0.020600000000     0.479630000000    -0.547008   
O55      O      0.724860000000     0.101630000000     0.479700000000    -0.546956   
O56      O      0.724950000000     0.020540000000     0.576970000000    -0.547025   
O57      O      0.924240000000     0.300930000000     0.479730000000    -0.546752   
O58      O      0.005310000000     0.300740000000     0.577020000000    -0.545545   
O59      O      0.924280000000     0.300880000000     0.577070000000    -0.546677   
O60      O      0.005270000000     0.300790000000     0.479680000000    -0.545584   
O61      O      0.005850000000     0.368680000000     0.479860000000    -0.53763    
O62      O      0.923920000000     0.368770000000     0.576980000000    -0.538768   
O63      O      0.005900000000     0.368630000000     0.576930000000    -0.537638   
O64      O      0.923880000000     0.368820000000     0.479910000000    -0.538715   
O65      O      0.223130000000     0.376020000000     0.265970000000    -0.544406   
O66      O      0.244030000000     0.282160000000     0.341700000000    -0.541543   
O67      O      0.280270000000     0.318880000000     0.265970000000    -0.544385   
O68      O      0.186420000000     0.339770000000     0.341700000000    -0.541678   
O69      O      0.149320000000     0.302210000000     0.290750000000    -0.544366   
O70      O      0.243170000000     0.281320000000     0.215010000000    -0.541575   
O71      O      0.206470000000     0.245060000000     0.290740000000    -0.544434   
O72      O      0.185560000000     0.338920000000     0.215020000000    -0.541604   
O73      O      0.743200000000     0.340320000000     0.341720000000    -0.541538   
O74      O      0.649340000000     0.319430000000     0.265980000000    -0.544271   
O75      O      0.685590000000     0.282720000000     0.341720000000    -0.541464   
O76      O      0.706490000000     0.376570000000     0.265990000000    -0.544456   
O77      O      0.744050000000     0.339470000000     0.215030000000    -0.541714   
O78      O      0.723160000000     0.245620000000     0.290760000000    -0.544484   
O79      O      0.686450000000     0.281860000000     0.215040000000    -0.541742   
O80      O      0.780300000000     0.302760000000     0.290760000000    -0.544541   
O81      O      0.686550000000     0.281690000000     0.841870000000    -0.541596   
O82      O      0.780400000000     0.302590000000     0.766140000000    -0.544406   
O83      O      0.744160000000     0.339300000000     0.841880000000    -0.541454   
O84      O      0.723260000000     0.245450000000     0.766130000000    -0.544278   
O85      O      0.685690000000     0.282560000000     0.715180000000    -0.54162    
O86      O      0.706590000000     0.376400000000     0.790920000000    -0.544383   
O87      O      0.743300000000     0.340160000000     0.715180000000    -0.541607   
O88      O      0.649450000000     0.319260000000     0.790920000000    -0.544355   
O89      O      0.780550000000     0.819440000000     0.290670000000    -0.544498   
O90      O      0.686690000000     0.840350000000     0.214940000000    -0.541564   
O91      O      0.723400000000     0.876590000000     0.290680000000    -0.544427   
O92      O      0.744300000000     0.782740000000     0.214930000000    -0.5416     
O93      O      0.706740000000     0.745640000000     0.265890000000    -0.544427   
O94      O      0.685850000000     0.839490000000     0.341630000000    -0.541742   
O95      O      0.649600000000     0.802780000000     0.265900000000    -0.544307   
O96      O      0.743460000000     0.781870000000     0.341620000000    -0.541647   
O97      O      0.723560000000     0.876390000000     0.765750000000    -0.544335   
O98      O      0.744470000000     0.782520000000     0.841470000000    -0.54156    
O99      O      0.780710000000     0.819240000000     0.765730000000    -0.544349   
O100     O      0.686860000000     0.840130000000     0.841480000000    -0.541454   
O101     O      0.649760000000     0.802570000000     0.790520000000    -0.544448   
O102     O      0.743610000000     0.781680000000     0.714780000000    -0.541596   
O103     O      0.706900000000     0.745430000000     0.790520000000    -0.544438   
O104     O      0.686000000000     0.839290000000     0.714790000000    -0.541655   
O105     O      0.186730000000     0.781290000000     0.341300000000    -0.541601   
O106     O      0.280580000000     0.802190000000     0.265560000000    -0.544423   
O107     O      0.244340000000     0.838890000000     0.341300000000    -0.541693   
O108     O      0.223430000000     0.745050000000     0.265570000000    -0.544378   
O109     O      0.185870000000     0.782150000000     0.214610000000    -0.541544   
O110     O      0.206770000000     0.876000000000     0.290350000000    -0.544333   
O111     O      0.243480000000     0.839760000000     0.214620000000    -0.541707   
O112     O      0.149630000000     0.818860000000     0.290350000000    -0.544347   
O113     O      0.243580000000     0.839590000000     0.841450000000    -0.541601   
O114     O      0.149730000000     0.818690000000     0.765720000000    -0.544492   
O115     O      0.185980000000     0.781980000000     0.841450000000    -0.541687   
O116     O      0.206870000000     0.875830000000     0.765720000000    -0.544404   
O117     O      0.244440000000     0.838730000000     0.714770000000    -0.541535   
O118     O      0.223540000000     0.744870000000     0.790500000000    -0.54425    
O119     O      0.186830000000     0.781130000000     0.714760000000    -0.541464   
O120     O      0.280690000000     0.802020000000     0.790500000000    -0.544127   
O121     O      0.280430000000     0.318670000000     0.790590000000    -0.544414   
O122     O      0.186570000000     0.339580000000     0.714870000000    -0.54157    
O123     O      0.223280000000     0.375810000000     0.790600000000    -0.54441    
O124     O      0.244180000000     0.281960000000     0.714860000000    -0.541584   
O125     O      0.206620000000     0.244860000000     0.765810000000    -0.544314   
O126     O      0.185720000000     0.338710000000     0.841550000000    -0.541407   
O127     O      0.149470000000     0.302010000000     0.765820000000    -0.544204   
O128     O      0.243340000000     0.281100000000     0.841550000000    -0.541363   
V1       V      0.464900000000     0.249950000000     0.028420000000     1.36818    
V2       V      0.464770000000     0.323290000000     0.028370000000     1.39974    
V3       V      0.154240000000     0.560430000000     0.028120000000     1.36863    
V4       V      0.227580000000     0.560360000000     0.028160000000     1.39981    
V5       V      0.465260000000     0.798160000000     0.028120000000     1.39993    
V6       V      0.465130000000     0.871500000000     0.028060000000     1.36835    
V7       V      0.702450000000     0.561090000000     0.028330000000     1.40002    
V8       V      0.775790000000     0.561030000000     0.028370000000     1.36787    
V9       V      0.202450000000     0.060370000000     0.528150000000     1.40157    
V10      V      0.275790000000     0.060420000000     0.528120000000     1.36986    
V11      V      0.965140000000     0.749950000000     0.528070000000     1.36689    
V12      V      0.965260000000     0.823290000000     0.528110000000     1.3988     
V13      V      0.654230000000     0.061030000000     0.528370000000     1.3699     
V14      V      0.727580000000     0.061090000000     0.528330000000     1.40165    
V15      V      0.964770000000     0.298160000000     0.528370000000     1.39863    
V16      V      0.964890000000     0.371500000000     0.528420000000     1.36709    
V17      V      0.234930000000     0.330680000000     0.305940000000     1.38539    
V18      V      0.194660000000     0.290410000000     0.250780000000     1.38544    
V19      V      0.694690000000     0.331230000000     0.305950000000     1.38515    
V20      V      0.734960000000     0.290960000000     0.250800000000     1.38542    
V21      V      0.735060000000     0.290790000000     0.806110000000     1.38506    
V22      V      0.694790000000     0.331060000000     0.750950000000     1.38539    
V23      V      0.735210000000     0.831250000000     0.250700000000     1.3848     
V24      V      0.694950000000     0.790980000000     0.305860000000     1.38549    
V25      V      0.735370000000     0.831040000000     0.805710000000     1.38497    
V26      V      0.695100000000     0.790780000000     0.750550000000     1.3854     
V27      V      0.235240000000     0.790390000000     0.305540000000     1.38542    
V28      V      0.194970000000     0.830660000000     0.250380000000     1.38531    
V29      V      0.195070000000     0.830490000000     0.805690000000     1.38593    
V30      V      0.235340000000     0.790220000000     0.750530000000     1.38488    
V31      V      0.235080000000     0.330470000000     0.750630000000     1.38526    
V32      V      0.194820000000     0.290200000000     0.805780000000     1.38508    


