data_structure

_audit_creation_method RASPA-1.0
_audit_creation_date 2023-5-22
_audit_author_name 'Poobodin Mano'

_cell_length_a    32.4619
_cell_length_b    32.4618
_cell_length_c    43.4072
_cell_angle_alpha 90
_cell_angle_beta  90
_cell_angle_gamma 90
_cell_volume      45741.3

_symmetry_cell_setting          triclinic
_symmetry_space_group_name_Hall 'P 1'
_symmetry_space_group_name_H-M  'P 1'
_symmetry_Int_Tables_number     1

_symmetry_equiv_pos_as_xyz 'x,y,z'

loop_
_atom_site_label
_atom_site_type_symbol
_atom_site_fract_x
_atom_site_fract_y
_atom_site_fract_z
_atom_site_charge
C1       C      0.502570000000     0.835590000000     0.060920000000     0.424485   
C2       C      0.503080000000     0.835240000000     0.444370000000     0.424644   
C3       C      0.425040000000     0.835330000000     0.502480000000     0.426302   
C4       C      0.580590000000     0.835480000000     0.502820000000     0.426256   
C5       C      0.503350000000     0.835620000000     0.310900000000     0.424978   
C6       C      0.502450000000     0.835270000000     0.194360000000     0.424686   
C7       C      0.425140000000     0.835600000000     0.252980000000     0.426107   
C8       C      0.580680000000     0.835270000000     0.252180000000     0.425996   
C9       C      0.835750000000     0.502400000000     0.440500000000     0.424626   
C10      C      0.835750000000     0.502110000000     0.057040000000     0.425516   
C11      C      0.835600000000     0.424480000000     0.998700000000     0.425137   
C12      C      0.835890000000     0.580020000000     0.998860000000     0.425505   
C13      C      0.835740000000     0.501970000000     0.190510000000     0.424536   
C14      C      0.835730000000     0.502680000000     0.307050000000     0.424664   
C15      C      0.835930000000     0.424560000000     0.249170000000     0.425831   
C16      C      0.835510000000     0.580100000000     0.248520000000     0.42549    
C17      C      0.502010000000     0.169320000000     0.443680000000     0.42459    
C18      C      0.503900000000     0.169320000000     0.060220000000     0.424153   
C19      C      0.425200000000     0.169340000000     0.002740000000     0.426632   
C20      C      0.580720000000     0.169380000000     0.001140000000     0.4267     
C21      C      0.502210000000     0.169250000000     0.310220000000     0.424606   
C22      C      0.503720000000     0.169240000000     0.193680000000     0.424849   
C23      C      0.580730000000     0.169210000000     0.252540000000     0.426036   
C24      C      0.425210000000     0.169250000000     0.251380000000     0.425823   
C25      C      0.170760000000     0.503050000000     0.060000000000     0.424538   
C26      C      0.169210000000     0.501390000000     0.443460000000     0.424545   
C27      C      0.170290000000     0.424430000000     0.502510000000     0.425963   
C28      C      0.169700000000     0.579970000000     0.500940000000     0.426062   
C29      C      0.170590000000     0.502650000000     0.193460000000     0.424437   
C30      C      0.169390000000     0.502260000000     0.310000000000     0.424466   
C31      C      0.169990000000     0.580230000000     0.251780000000     0.425844   
C32      C      0.170010000000     0.424700000000     0.251700000000     0.426068   
C33      C      0.913580000000     0.835110000000     0.000050000000     0.412367   
C34      C      0.757910000000     0.835160000000     0.001780000000     0.420738   
C35      C      0.835680000000     0.913030000000     0.501710000000     0.424942   
C36      C      0.835700000000     0.757360000000     0.500040000000     0.425426   
C37      C      0.913670000000     0.835080000000     0.251460000000     0.425312   
C38      C      0.757970000000     0.835140000000     0.251240000000     0.425582   
C39      C      0.835780000000     0.913070000000     0.252620000000     0.42486    
C40      C      0.835630000000     0.757390000000     0.250090000000     0.425479   
C41      C      0.835790000000     0.091500000000     0.001690000000     0.420613   
C42      C      0.835730000000     0.247190000000     0.999950000000     0.430358   
C43      C      0.913720000000     0.169470000000     0.501350000000     0.4251     
C44      C      0.758020000000     0.169460000000     0.500380000000     0.425744   
C45      C      0.835900000000     0.091560000000     0.253390000000     0.425242   
C46      C      0.835750000000     0.247250000000     0.251670000000     0.425499   
C47      C      0.913750000000     0.169590000000     0.252370000000     0.425215   
C48      C      0.758060000000     0.169360000000     0.252920000000     0.425658   
C49      C      0.170070000000     0.091450000000     0.502270000000     0.424919   
C50      C      0.170310000000     0.247140000000     0.503360000000     0.425659   
C51      C      0.092200000000     0.169480000000     0.002310000000     0.420707   
C52      C      0.247900000000     0.169340000000     0.003340000000     0.42098    
C53      C      0.170100000000     0.091690000000     0.251770000000     0.424985   
C54      C      0.170130000000     0.247370000000     0.251930000000     0.425533   
C55      C      0.092210000000     0.169660000000     0.252150000000     0.425083   
C56      C      0.247890000000     0.169540000000     0.251410000000     0.42546    
C57      C      0.092050000000     0.835160000000     0.499890000000     0.424768   
C58      C      0.247730000000     0.834980000000     0.501370000000     0.425235   
C59      C      0.170090000000     0.912980000000     0.001160000000     0.420575   
C60      C      0.169770000000     0.757290000000     0.000090000000     0.411767   
C61      C      0.092140000000     0.835230000000     0.251590000000     0.42496    
C62      C      0.247830000000     0.835400000000     0.252510000000     0.425572   
C63      C      0.170030000000     0.913230000000     0.252110000000     0.424958   
C64      C      0.170090000000     0.757550000000     0.251800000000     0.425586   
C65      C      0.170100000000     0.980840000000     0.224120000000    -0.000362017
C66      C      0.170070000000     0.958890000000     0.252060000000    -0.106015   
C67      C      0.170070000000     0.981020000000     0.279890000000    -0.000447303
C68      C      0.170080000000     0.024080000000     0.279780000000    -0.000336779
C69      C      0.170110000000     0.046030000000     0.251830000000    -0.106047   
C70      C      0.170140000000     0.023890000000     0.224010000000    -0.000372214
C71      C      0.170010000000     0.024050000000     0.473960000000    -0.000275563
C72      C      0.170090000000     0.045790000000     0.501970000000    -0.106073   
C73      C      0.170210000000     0.023430000000     0.029720000000    -0.000194512
C74      C      0.170240000000     0.980370000000     0.029470000000    -0.000298619
C75      C      0.170120000000     0.958640000000     0.001460000000    -0.109893   
C76      C      0.170010000000     0.981000000000     0.473700000000    -0.000494841
C77      C      0.981510000000     0.169890000000     0.280170000000    -0.000306702
C78      C      0.959400000000     0.169660000000     0.252300000000    -0.106172   
C79      C      0.981390000000     0.169470000000     0.224400000000    -0.000407709
C80      C      0.024440000000     0.169470000000     0.224380000000    -0.000300736
C81      C      0.046550000000     0.169690000000     0.252250000000    -0.106092   
C82      C      0.024570000000     0.169930000000     0.280140000000    -0.000355156
C83      C      0.981170000000     0.169620000000     0.029600000000    -0.000273919
C84      C      0.959390000000     0.169510000000     0.501610000000    -0.106012   
C85      C      0.981700000000     0.169430000000     0.473840000000    -0.000378305
C86      C      0.024760000000     0.169450000000     0.474050000000    -0.000321278
C87      C      0.046540000000     0.169530000000     0.002040000000    -0.109859   
C88      C      0.024220000000     0.169620000000     0.029820000000    -0.000314769
C89      C      0.981410000000     0.835020000000     0.223590000000    -0.000359975
C90      C      0.959330000000     0.835070000000     0.251480000000    -0.10617    
C91      C      0.981350000000     0.835120000000     0.279360000000    -0.000288078
C92      C      0.024390000000     0.835190000000     0.279360000000    -0.000296806
C93      C      0.046480000000     0.835150000000     0.251480000000    -0.106048   
C94      C      0.024470000000     0.835030000000     0.223600000000    -0.000454648
C95      C      0.836270000000     0.981030000000     0.225350000000    -0.000509958
C96      C      0.835810000000     0.958730000000     0.253110000000    -0.105988   
C97      C      0.835370000000     0.980530000000     0.281110000000    -0.000321254
C98      C      0.835400000000     0.023660000000     0.281310000000    -0.000392752
C99      C      0.835880000000     0.045890000000     0.253510000000    -0.106102   
C100     C      0.836310000000     0.024020000000     0.225550000000    -0.000291692
C101     C      0.981360000000     0.835700000000     0.027620000000    -0.00841024 
C102     C      0.959240000000     0.835120000000     0.999780000000    -0.0930218  
C103     C      0.981220000000     0.834550000000     0.471860000000    -0.000328576
C104     C      0.024320000000     0.834560000000     0.471820000000    -0.000303787
C105     C      0.046390000000     0.835160000000     0.499690000000    -0.105994   
C106     C      0.024360000000     0.835720000000     0.027580000000    -0.00246417 
C107     C      0.835300000000     0.980720000000     0.029850000000    -0.000262562
C108     C      0.835680000000     0.958690000000     0.501950000000    -0.106061   
C109     C      0.836090000000     0.980760000000     0.474090000000    -0.000332323
C110     C      0.836120000000     0.023760000000     0.474080000000    -0.000404386
C111     C      0.835750000000     0.045840000000     0.001940000000    -0.109862   
C112     C      0.835330000000     0.023830000000     0.029850000000    -0.000304211
C113     C      0.143020000000     0.647370000000     0.271050000000     0.00129268 
C114     C      0.169980000000     0.625550000000     0.251740000000    -0.106599   
C115     C      0.196920000000     0.647340000000     0.232390000000     0.0012614  
C116     C      0.196420000000     0.690410000000     0.231980000000     0.000871842
C117     C      0.170000000000     0.712230000000     0.251700000000    -0.10657    
C118     C      0.143550000000     0.690430000000     0.271430000000     0.00122737 
C119     C      0.196700000000     0.357630000000     0.271370000000     0.00139175 
C120     C      0.170010000000     0.379380000000     0.251800000000    -0.106645   
C121     C      0.143300000000     0.357500000000     0.232330000000     0.00133368 
C122     C      0.143830000000     0.314440000000     0.232030000000     0.00126847 
C123     C      0.170020000000     0.292690000000     0.251970000000    -0.106499   
C124     C      0.196190000000     0.314570000000     0.271850000000     0.000835578
C125     C      0.196660000000     0.646930000000     0.481170000000     0.00138405 
C126     C      0.169520000000     0.625300000000     0.500470000000    -0.10655    
C127     C      0.142230000000     0.647290000000     0.019410000000     0.00813201 
C128     C      0.142710000000     0.690340000000     0.019530000000    -0.0111109  
C129     C      0.169440000000     0.711980000000     0.999920000000    -0.0900788  
C130     C      0.196110000000     0.690000000000     0.480490000000     0.000872308
C131     C      0.143690000000     0.357480000000     0.022540000000     0.00231009 
C132     C      0.170490000000     0.379120000000     0.502970000000    -0.106453   
C133     C      0.197460000000     0.357140000000     0.483780000000     0.0012198  
C134     C      0.197010000000     0.314090000000     0.483660000000     0.00152408 
C135     C      0.170640000000     0.292450000000     0.503530000000    -0.106492   
C136     C      0.144290000000     0.314410000000     0.023210000000     0.00102278 
C137     C      0.131830000000     0.501250000000     0.360590000000    -0.000506956
C138     C      0.169160000000     0.501950000000     0.344150000000    -0.106047   
C139     C      0.206390000000     0.502290000000     0.360680000000    -0.000805488
C140     C      0.206320000000     0.501990000000     0.392850000000    -0.000672095
C141     C      0.169020000000     0.501370000000     0.409310000000    -0.106163   
C142     C      0.131760000000     0.500970000000     0.392810000000    -0.000463956
C143     C      0.208220000000     0.502650000000     0.110650000000    -0.000617919
C144     C      0.170950000000     0.503190000000     0.094150000000    -0.106215   
C145     C      0.133650000000     0.503630000000     0.110620000000    -0.000723918
C146     C      0.133590000000     0.503480000000     0.142790000000    -0.000720291
C147     C      0.170820000000     0.502870000000     0.159320000000    -0.106224   
C148     C      0.208150000000     0.502470000000     0.142870000000    -0.000586768
C149     C      0.358030000000     0.142440000000     0.270660000000     0.0012241  
C150     C      0.379890000000     0.169240000000     0.251240000000    -0.106547   
C151     C      0.358120000000     0.196040000000     0.231770000000     0.00127634 
C152     C      0.315040000000     0.195570000000     0.231360000000     0.000951654
C153     C      0.293200000000     0.169340000000     0.251210000000    -0.106622   
C154     C      0.314980000000     0.143010000000     0.271030000000     0.00126471 
C155     C      0.647770000000     0.196090000000     0.272190000000     0.00130242 
C156     C      0.626060000000     0.169160000000     0.252780000000    -0.106606   
C157     C      0.647970000000     0.142190000000     0.233550000000     0.00128664 
C158     C      0.691020000000     0.142710000000     0.233280000000     0.00128683 
C159     C      0.712740000000     0.169170000000     0.253030000000    -0.106664   
C160     C      0.690840000000     0.195580000000     0.272710000000     0.000931413
C161     C      0.358190000000     0.142600000000     0.022600000000     0.00217399 
C162     C      0.379870000000     0.169430000000     0.003090000000    -0.111813   
C163     C      0.357930000000     0.196390000000     0.983860000000     0.00630796 
C164     C      0.314890000000     0.195940000000     0.983680000000     0.0052779  
C165     C      0.293200000000     0.169570000000     0.003520000000    -0.110088   
C166     C      0.315110000000     0.143190000000     0.023210000000     0.00109432 
C167     C      0.647700000000     0.142840000000     0.481090000000     0.00131622 
C168     C      0.626040000000     0.169490000000     0.000750000000    -0.11192    
C169     C      0.648000000000     0.196310000000     0.020080000000     0.00209588 
C170     C      0.691040000000     0.195890000000     0.020210000000     0.00101075 
C171     C      0.712720000000     0.169690000000     0.500230000000    -0.106676   
C172     C      0.690780000000     0.143460000000     0.480430000000     0.00143473 
C173     C      0.501740000000     0.206580000000     0.393040000000    -0.000621901
C174     C      0.501760000000     0.169300000000     0.409540000000    -0.106245   
C175     C      0.501730000000     0.132010000000     0.393060000000    -0.000544487
C176     C      0.501820000000     0.131990000000     0.360860000000    -0.000575853
C177     C      0.501900000000     0.169260000000     0.344360000000    -0.106216   
C178     C      0.501790000000     0.206560000000     0.360840000000    -0.000626836
C179     C      0.504100000000     0.131980000000     0.143040000000    -0.000508349
C180     C      0.504030000000     0.169250000000     0.159540000000    -0.106395   
C181     C      0.504140000000     0.206550000000     0.143060000000    -0.000595443
C182     C      0.504180000000     0.206570000000     0.110860000000    -0.000729612
C183     C      0.504160000000     0.169300000000     0.094360000000    -0.106137   
C184     C      0.504190000000     0.132000000000     0.110840000000    -0.00069299 
C185     C      0.809170000000     0.356960000000     0.230600000000     0.00122651 
C186     C      0.836000000000     0.379240000000     0.249720000000    -0.106515   
C187     C      0.862710000000     0.357890000000     0.269520000000     0.001269   
C188     C      0.862090000000     0.314850000000     0.270570000000     0.00127121 
C189     C      0.835780000000     0.292560000000     0.251060000000    -0.10663    
C190     C      0.809590000000     0.313900000000     0.230870000000     0.00101335 
C191     C      0.861930000000     0.647520000000     0.229250000000     0.00125356 
C192     C      0.835350000000     0.625420000000     0.248680000000    -0.106234   
C193     C      0.808720000000     0.646950000000     0.268430000000     0.00106384 
C194     C      0.809270000000     0.689990000000     0.269190000000     0.00154739 
C195     C      0.835390000000     0.712090000000     0.249430000000    -0.10653    
C196     C      0.861420000000     0.690600000000     0.229220000000     0.0014612  
C197     C      0.862080000000     0.357130000000     0.979390000000     0.00045733 
C198     C      0.835500000000     0.379170000000     0.998860000000    -0.10078    
C199     C      0.808900000000     0.357580000000     0.518600000000     0.00110905 
C200     C      0.809460000000     0.314530000000     0.519290000000     0.00148713 
C201     C      0.835560000000     0.292490000000     0.999470000000    -0.102929   
C202     C      0.861580000000     0.314060000000     0.979300000000     0.00199533 
C203     C      0.862890000000     0.646960000000     0.018480000000    -0.00176667 
C204     C      0.835970000000     0.625350000000     0.999020000000    -0.102341   
C205     C      0.809030000000     0.647360000000     0.479800000000     0.00118879 
C206     C      0.809510000000     0.690430000000     0.479690000000     0.00101166 
C207     C      0.835870000000     0.712030000000     0.499580000000    -0.106452   
C208     C      0.862330000000     0.690010000000     0.019150000000    -0.00651822 
C209     C      0.798470000000     0.501580000000     0.389880000000    -0.000662456
C210     C      0.835750000000     0.502530000000     0.406360000000    -0.106159   
C211     C      0.873020000000     0.503610000000     0.389870000000    -0.000591813
C212     C      0.873010000000     0.503700000000     0.357680000000    -0.000468102
C213     C      0.835740000000     0.502720000000     0.341190000000    -0.106278   
C214     C      0.798470000000     0.501670000000     0.357680000000    -0.000561484
C215     C      0.798470000000     0.502900000000     0.139870000000    -0.00102374 
C216     C      0.835750000000     0.501900000000     0.156360000000    -0.106069   
C217     C      0.873020000000     0.500920000000     0.139880000000    -0.000930471
C218     C      0.873030000000     0.500970000000     0.107680000000    -0.000478846
C219     C      0.835750000000     0.502010000000     0.091190000000    -0.107126   
C220     C      0.798480000000     0.502960000000     0.107670000000    -0.000442229
C221     C      0.315020000000     0.862200000000     0.233250000000     0.00130908 
C222     C      0.293140000000     0.835580000000     0.252780000000    -0.106586   
C223     C      0.314880000000     0.809050000000     0.272480000000     0.000897457
C224     C      0.357950000000     0.808580000000     0.272190000000     0.0013746  
C225     C      0.379820000000     0.835680000000     0.253010000000    -0.106626   
C226     C      0.358070000000     0.862770000000     0.233760000000     0.00136928 
C227     C      0.647640000000     0.862200000000     0.232450000000     0.00131648 
C228     C      0.626000000000     0.835150000000     0.251820000000    -0.10635    
C229     C      0.647970000000     0.807960000000     0.270850000000     0.00110816 
C230     C      0.691030000000     0.808400000000     0.270960000000     0.00151645 
C231     C      0.712670000000     0.834980000000     0.251240000000    -0.106611   
C232     C      0.690700000000     0.861590000000     0.231760000000     0.0015138  
C233     C      0.358060000000     0.862510000000     0.483090000000     0.00154918 
C234     C      0.379720000000     0.835300000000     0.502290000000    -0.106809   
C235     C      0.357750000000     0.808030000000     0.021280000000     0.00237544 
C236     C      0.314680000000     0.808470000000     0.021430000000     0.000392587
C237     C      0.293040000000     0.835140000000     0.501780000000    -0.106407   
C238     C      0.315020000000     0.861920000000     0.482430000000     0.00112307 
C239     C      0.647580000000     0.862740000000     0.483520000000     0.00137689 
C240     C      0.625920000000     0.835530000000     0.502730000000    -0.106655   
C241     C      0.647880000000     0.808290000000     0.021740000000     0.00233187 
C242     C      0.690950000000     0.808740000000     0.021900000000     0.000431042
C243     C      0.712600000000     0.835390000000     0.002240000000    -0.109963   
C244     C      0.690620000000     0.862160000000     0.482880000000     0.00122924 
C245     C      0.503390000000     0.798220000000     0.361480000000    -0.000567275
C246     C      0.503430000000     0.835580000000     0.345050000000    -0.106308   
C247     C      0.503420000000     0.872790000000     0.361600000000    -0.000545506
C248     C      0.503330000000     0.872650000000     0.393790000000    -0.000630543
C249     C      0.503250000000     0.835280000000     0.410220000000    -0.106158   
C250     C      0.503300000000     0.798070000000     0.393680000000    -0.000737739
C251     C      0.502410000000     0.872780000000     0.111590000000    -0.000593784
C252     C      0.502440000000     0.835560000000     0.095060000000    -0.106229   
C253     C      0.502370000000     0.798200000000     0.111490000000    -0.000588099
C254     C      0.502330000000     0.798070000000     0.143680000000    -0.000644862
C255     C      0.502350000000     0.835290000000     0.160220000000    -0.1062     
C256     C      0.502370000000     0.872650000000     0.143780000000    -0.00058555 
C257     C      0.502570000000     0.835590000000     0.560920000000     0.424875   
C258     C      0.503080000000     0.835240000000     0.944370000000     0.423774   
C259     C      0.425040000000     0.835330000000     0.002480000000     0.427021   
C260     C      0.580590000000     0.835480000000     0.002820000000     0.426977   
C261     C      0.503350000000     0.835620000000     0.810900000000     0.425041   
C262     C      0.502450000000     0.835270000000     0.694360000000     0.424677   
C263     C      0.425140000000     0.835600000000     0.752980000000     0.426103   
C264     C      0.580680000000     0.835270000000     0.752180000000     0.425991   
C265     C      0.835750000000     0.502400000000     0.940500000000     0.425024   
C266     C      0.835750000000     0.502110000000     0.557040000000     0.424635   
C267     C      0.835600000000     0.424480000000     0.498700000000     0.425832   
C268     C      0.835890000000     0.580020000000     0.498860000000     0.42564    
C269     C      0.835740000000     0.501970000000     0.690510000000     0.424592   
C270     C      0.835730000000     0.502680000000     0.807050000000     0.424663   
C271     C      0.835930000000     0.424560000000     0.749170000000     0.425827   
C272     C      0.835510000000     0.580100000000     0.748520000000     0.425486   
C273     C      0.502010000000     0.169320000000     0.943680000000     0.423718   
C274     C      0.503900000000     0.169320000000     0.560220000000     0.424539   
C275     C      0.425200000000     0.169340000000     0.502740000000     0.425909   
C276     C      0.580720000000     0.169380000000     0.501140000000     0.425956   
C277     C      0.502210000000     0.169250000000     0.810220000000     0.42467    
C278     C      0.503720000000     0.169240000000     0.693680000000     0.424839   
C279     C      0.580730000000     0.169210000000     0.752540000000     0.426018   
C280     C      0.425210000000     0.169250000000     0.751380000000     0.425818   
C281     C      0.170760000000     0.503050000000     0.560000000000     0.424922   
C282     C      0.169210000000     0.501390000000     0.943460000000     0.423682   
C283     C      0.170290000000     0.424430000000     0.002510000000     0.426701   
C284     C      0.169700000000     0.579970000000     0.000940000000     0.428364   
C285     C      0.170590000000     0.502650000000     0.693460000000     0.424434   
C286     C      0.169390000000     0.502260000000     0.810000000000     0.424526   
C287     C      0.169990000000     0.580230000000     0.751780000000     0.425839   
C288     C      0.170010000000     0.424700000000     0.751700000000     0.426058   
C289     C      0.913580000000     0.835110000000     0.500050000000     0.424891   
C290     C      0.757910000000     0.835160000000     0.501780000000     0.42549    
C291     C      0.835680000000     0.913030000000     0.001710000000     0.420325   
C292     C      0.835700000000     0.757360000000     0.000040000000     0.412787   
C293     C      0.913670000000     0.835080000000     0.751460000000     0.425302   
C294     C      0.757970000000     0.835140000000     0.751240000000     0.425571   
C295     C      0.835780000000     0.913070000000     0.752620000000     0.424855   
C296     C      0.835630000000     0.757390000000     0.750090000000     0.425465   
C297     C      0.835790000000     0.091500000000     0.501690000000     0.425075   
C298     C      0.835730000000     0.247190000000     0.499950000000     0.425527   
C299     C      0.913720000000     0.169470000000     0.001350000000     0.420494   
C300     C      0.758020000000     0.169460000000     0.000380000000     0.420694   
C301     C      0.835900000000     0.091560000000     0.753390000000     0.424874   
C302     C      0.835750000000     0.247250000000     0.751670000000     0.425482   
C303     C      0.913750000000     0.169590000000     0.752370000000     0.425203   
C304     C      0.758060000000     0.169360000000     0.752920000000     0.425647   
C305     C      0.170070000000     0.091450000000     0.002270000000     0.420762   
C306     C      0.170310000000     0.247140000000     0.003360000000     0.42099    
C307     C      0.092200000000     0.169480000000     0.502310000000     0.425207   
C308     C      0.247900000000     0.169340000000     0.503340000000     0.425653   
C309     C      0.170100000000     0.091690000000     0.751770000000     0.424966   
C310     C      0.170130000000     0.247370000000     0.751930000000     0.425515   
C311     C      0.092210000000     0.169660000000     0.752150000000     0.425051   
C312     C      0.247890000000     0.169540000000     0.751410000000     0.425446   
C313     C      0.092050000000     0.835160000000     0.999890000000     0.429959   
C314     C      0.247730000000     0.834980000000     0.001370000000     0.420618   
C315     C      0.170090000000     0.912980000000     0.501160000000     0.424881   
C316     C      0.169770000000     0.757290000000     0.500090000000     0.425721   
C317     C      0.092140000000     0.835230000000     0.751590000000     0.424935   
C318     C      0.247830000000     0.835400000000     0.752510000000     0.425561   
C319     C      0.170030000000     0.913230000000     0.752110000000     0.424951   
C320     C      0.170090000000     0.757550000000     0.751800000000     0.425574   
C321     C      0.170100000000     0.980840000000     0.724120000000    -0.000360604
C322     C      0.170070000000     0.958890000000     0.752060000000    -0.106032   
C323     C      0.170070000000     0.981020000000     0.779890000000    -0.00039578 
C324     C      0.170080000000     0.024080000000     0.779780000000    -0.000355657
C325     C      0.170110000000     0.046030000000     0.751830000000    -0.106034   
C326     C      0.170140000000     0.023890000000     0.724010000000    -0.000389802
C327     C      0.170010000000     0.024050000000     0.973960000000     0.00388204 
C328     C      0.170090000000     0.045790000000     0.001970000000    -0.109931   
C329     C      0.170210000000     0.023430000000     0.529720000000    -0.000344719
C330     C      0.170240000000     0.980370000000     0.529470000000    -0.000427806
C331     C      0.170120000000     0.958640000000     0.501460000000    -0.10597    
C332     C      0.170010000000     0.981000000000     0.973700000000     0.00362588 
C333     C      0.981510000000     0.169890000000     0.780170000000    -0.000248423
C334     C      0.959400000000     0.169660000000     0.752300000000    -0.106192   
C335     C      0.981390000000     0.169470000000     0.724400000000    -0.000395064
C336     C      0.024440000000     0.169470000000     0.724380000000    -0.000330049
C337     C      0.046550000000     0.169690000000     0.752250000000    -0.106037   
C338     C      0.024570000000     0.169930000000     0.780150000000    -0.00044893 
C339     C      0.981170000000     0.169620000000     0.529600000000    -0.000365475
C340     C      0.959390000000     0.169510000000     0.001610000000    -0.109838   
C341     C      0.981700000000     0.169430000000     0.973840000000     0.00371008 
C342     C      0.024760000000     0.169450000000     0.974050000000     0.00379381 
C343     C      0.046540000000     0.169530000000     0.502040000000    -0.106112   
C344     C      0.024220000000     0.169620000000     0.529820000000    -0.000412591
C345     C      0.981410000000     0.835020000000     0.723590000000    -0.000332111
C346     C      0.959330000000     0.835070000000     0.751480000000    -0.106184   
C347     C      0.981350000000     0.835120000000     0.779360000000    -0.000275814
C348     C      0.024390000000     0.835190000000     0.779360000000    -0.000311506
C349     C      0.046480000000     0.835150000000     0.751480000000    -0.106013   
C350     C      0.024470000000     0.835030000000     0.723590000000    -0.000511594
C351     C      0.836270000000     0.981030000000     0.725350000000    -0.000478894
C352     C      0.835810000000     0.958730000000     0.753110000000    -0.106015   
C353     C      0.835370000000     0.980530000000     0.781110000000    -0.000281714
C354     C      0.835400000000     0.023660000000     0.781310000000    -0.00046003 
C355     C      0.835880000000     0.045890000000     0.753510000000    -0.10595    
C356     C      0.836310000000     0.024020000000     0.725550000000    -0.000371093
C357     C      0.981360000000     0.835700000000     0.527620000000    -0.000443622
C358     C      0.959240000000     0.835120000000     0.499780000000    -0.106014   
C359     C      0.981220000000     0.834550000000     0.971860000000    -0.00426011 
C360     C      0.024320000000     0.834560000000     0.971810000000     0.00165531 
C361     C      0.046390000000     0.835160000000     0.999690000000    -0.103434   
C362     C      0.024360000000     0.835720000000     0.527580000000    -0.000497784
C363     C      0.835300000000     0.980720000000     0.529850000000    -0.000335236
C364     C      0.835680000000     0.958690000000     0.001950000000    -0.109839   
C365     C      0.836090000000     0.980760000000     0.974090000000     0.00374011 
C366     C      0.836120000000     0.023760000000     0.974080000000     0.00370127 
C367     C      0.835750000000     0.045840000000     0.501940000000    -0.106059   
C368     C      0.835330000000     0.023830000000     0.529850000000    -0.000413533
C369     C      0.143020000000     0.647370000000     0.771050000000     0.00129568 
C370     C      0.169980000000     0.625550000000     0.751740000000    -0.10657    
C371     C      0.196920000000     0.647340000000     0.732390000000     0.00128416 
C372     C      0.196420000000     0.690410000000     0.731980000000     0.000859982
C373     C      0.170000000000     0.712230000000     0.751710000000    -0.106554   
C374     C      0.143550000000     0.690430000000     0.771430000000     0.00127592 
C375     C      0.196700000000     0.357630000000     0.771370000000     0.00142617 
C376     C      0.170010000000     0.379380000000     0.751800000000    -0.106649   
C377     C      0.143300000000     0.357500000000     0.732340000000     0.00140951 
C378     C      0.143830000000     0.314440000000     0.732030000000     0.00123667 
C379     C      0.170020000000     0.292690000000     0.751970000000    -0.106464   
C380     C      0.196190000000     0.314570000000     0.771850000000     0.000847758
C381     C      0.196660000000     0.646930000000     0.981170000000     0.0125902  
C382     C      0.169520000000     0.625300000000     0.000470000000    -0.116616   
C383     C      0.142230000000     0.647290000000     0.519400000000     0.00131915 
C384     C      0.142710000000     0.690340000000     0.519530000000     0.00137516 
C385     C      0.169440000000     0.711980000000     0.499920000000    -0.106659   
C386     C      0.196110000000     0.690000000000     0.980490000000    -0.00746418 
C387     C      0.143690000000     0.357480000000     0.522540000000     0.00141023 
C388     C      0.170490000000     0.379120000000     0.002970000000    -0.111971   
C389     C      0.197460000000     0.357140000000     0.983780000000     0.00646567 
C390     C      0.197010000000     0.314090000000     0.983660000000     0.00523805 
C391     C      0.170640000000     0.292450000000     0.003530000000    -0.10995    
C392     C      0.144290000000     0.314410000000     0.523220000000     0.0013934  
C393     C      0.131830000000     0.501250000000     0.860590000000    -0.000214728
C394     C      0.169160000000     0.501950000000     0.844150000000    -0.106123   
C395     C      0.206390000000     0.502290000000     0.860670000000    -0.000494645
C396     C      0.206320000000     0.501990000000     0.892840000000    -0.00086421 
C397     C      0.169020000000     0.501370000000     0.909310000000    -0.105227   
C398     C      0.131760000000     0.500970000000     0.892810000000    -0.000644151
C399     C      0.208220000000     0.502650000000     0.610650000000    -0.00054178 
C400     C      0.170950000000     0.503190000000     0.594150000000    -0.10624    
C401     C      0.133650000000     0.503630000000     0.610620000000    -0.000672671
C402     C      0.133590000000     0.503480000000     0.642790000000    -0.000687881
C403     C      0.170820000000     0.502870000000     0.659320000000    -0.106205   
C404     C      0.208150000000     0.502470000000     0.642870000000    -0.000552617
C405     C      0.358030000000     0.142440000000     0.770660000000     0.00123842 
C406     C      0.379890000000     0.169240000000     0.751240000000    -0.106521   
C407     C      0.358120000000     0.196040000000     0.731770000000     0.00128511 
C408     C      0.315040000000     0.195570000000     0.731360000000     0.000962801
C409     C      0.293200000000     0.169340000000     0.751210000000    -0.106607   
C410     C      0.314980000000     0.143010000000     0.771030000000     0.00128458 
C411     C      0.647770000000     0.196090000000     0.772190000000     0.00130475 
C412     C      0.626060000000     0.169160000000     0.752780000000    -0.10654    
C413     C      0.647970000000     0.142190000000     0.733540000000     0.00121721 
C414     C      0.691020000000     0.142710000000     0.733280000000     0.00133441 
C415     C      0.712740000000     0.169170000000     0.753030000000    -0.106665   
C416     C      0.690840000000     0.195580000000     0.772710000000     0.00097392 
C417     C      0.358190000000     0.142600000000     0.522600000000     0.00122192 
C418     C      0.379870000000     0.169430000000     0.503090000000    -0.106315   
C419     C      0.357930000000     0.196390000000     0.483860000000     0.00105431 
C420     C      0.314890000000     0.195940000000     0.483680000000     0.00157058 
C421     C      0.293200000000     0.169570000000     0.503520000000    -0.106674   
C422     C      0.315110000000     0.143190000000     0.523210000000     0.00150711 
C423     C      0.647700000000     0.142840000000     0.981090000000     0.00660837 
C424     C      0.626040000000     0.169490000000     0.500750000000    -0.106387   
C425     C      0.648000000000     0.196310000000     0.520080000000     0.00110083 
C426     C      0.691040000000     0.195890000000     0.520210000000     0.00152218 
C427     C      0.712720000000     0.169690000000     0.000230000000    -0.109961   
C428     C      0.690780000000     0.143460000000     0.980430000000     0.00507578 
C429     C      0.501740000000     0.206580000000     0.893040000000    -0.000801034
C430     C      0.501760000000     0.169300000000     0.909540000000    -0.105288   
C431     C      0.501730000000     0.132010000000     0.893060000000    -0.000734479
C432     C      0.501820000000     0.131990000000     0.860860000000    -0.00026907 
C433     C      0.501900000000     0.169260000000     0.844360000000    -0.106287   
C434     C      0.501790000000     0.206560000000     0.860840000000    -0.000310493
C435     C      0.504100000000     0.131980000000     0.643040000000    -0.000504486
C436     C      0.504030000000     0.169250000000     0.659540000000    -0.106372   
C437     C      0.504140000000     0.206550000000     0.643060000000    -0.000575496
C438     C      0.504180000000     0.206570000000     0.610860000000    -0.000656009
C439     C      0.504160000000     0.169300000000     0.594360000000    -0.106189   
C440     C      0.504190000000     0.132000000000     0.610840000000    -0.000633798
C441     C      0.809170000000     0.356960000000     0.730600000000     0.00124457 
C442     C      0.836000000000     0.379240000000     0.749720000000    -0.106486   
C443     C      0.862710000000     0.357890000000     0.769520000000     0.00128001 
C444     C      0.862090000000     0.314850000000     0.770570000000     0.00128616 
C445     C      0.835780000000     0.292560000000     0.751060000000    -0.106609   
C446     C      0.809590000000     0.313900000000     0.730870000000     0.00103466 
C447     C      0.861930000000     0.647520000000     0.729250000000     0.00125618 
C448     C      0.835350000000     0.625420000000     0.748680000000    -0.106206   
C449     C      0.808720000000     0.646950000000     0.768430000000     0.00109088 
C450     C      0.809270000000     0.689990000000     0.769190000000     0.00153545 
C451     C      0.835390000000     0.712090000000     0.749420000000    -0.10651    
C452     C      0.861420000000     0.690600000000     0.729220000000     0.00150507 
C453     C      0.862080000000     0.357130000000     0.479390000000     0.00132816 
C454     C      0.835500000000     0.379170000000     0.498860000000    -0.106434   
C455     C      0.808900000000     0.357580000000     0.018600000000    -0.00405701 
C456     C      0.809460000000     0.314530000000     0.019290000000    -0.00214551 
C457     C      0.835560000000     0.292490000000     0.499470000000    -0.106595   
C458     C      0.861580000000     0.314060000000     0.479300000000     0.00150951 
C459     C      0.862890000000     0.646960000000     0.518480000000     0.00126859 
C460     C      0.835970000000     0.625350000000     0.499020000000    -0.106382   
C461     C      0.809030000000     0.647360000000     0.979800000000     0.00247373 
C462     C      0.809510000000     0.690430000000     0.979690000000    -0.00264598 
C463     C      0.835870000000     0.712030000000     0.999580000000    -0.0935777  
C464     C      0.862330000000     0.690010000000     0.519150000000     0.00128018 
C465     C      0.798470000000     0.501580000000     0.889880000000    -0.0005804  
C466     C      0.835750000000     0.502530000000     0.906360000000    -0.10615    
C467     C      0.873020000000     0.503610000000     0.889870000000    -0.00052265 
C468     C      0.873010000000     0.503700000000     0.857680000000    -0.000423048
C469     C      0.835740000000     0.502720000000     0.841190000000    -0.106245   
C470     C      0.798470000000     0.501670000000     0.857680000000    -0.000506377
C471     C      0.798470000000     0.502900000000     0.639870000000    -0.000738131
C472     C      0.835750000000     0.501900000000     0.656360000000    -0.106149   
C473     C      0.873020000000     0.500920000000     0.639880000000    -0.000662149
C474     C      0.873030000000     0.500970000000     0.607680000000    -0.00067839 
C475     C      0.835750000000     0.502010000000     0.591190000000    -0.106225   
C476     C      0.798480000000     0.502960000000     0.607680000000    -0.000631314
C477     C      0.315020000000     0.862200000000     0.733250000000     0.00131619 
C478     C      0.293140000000     0.835580000000     0.752780000000    -0.10657    
C479     C      0.314880000000     0.809050000000     0.772480000000     0.000925616
C480     C      0.357950000000     0.808580000000     0.772190000000     0.00139678 
C481     C      0.379820000000     0.835680000000     0.753010000000    -0.106598   
C482     C      0.358070000000     0.862770000000     0.733760000000     0.00137217 
C483     C      0.647640000000     0.862200000000     0.732450000000     0.00132112 
C484     C      0.626000000000     0.835150000000     0.751820000000    -0.106321   
C485     C      0.647970000000     0.807960000000     0.770850000000     0.00112723 
C486     C      0.691030000000     0.808400000000     0.770960000000     0.00154342 
C487     C      0.712670000000     0.834980000000     0.751240000000    -0.106595   
C488     C      0.690700000000     0.861590000000     0.731760000000     0.00152425 
C489     C      0.358060000000     0.862510000000     0.983090000000     0.00678593 
C490     C      0.379720000000     0.835300000000     0.002300000000    -0.11229    
C491     C      0.357750000000     0.808030000000     0.521280000000     0.00141852 
C492     C      0.314680000000     0.808470000000     0.521430000000     0.000823197
C493     C      0.293040000000     0.835140000000     0.001780000000    -0.10987    
C494     C      0.315020000000     0.861920000000     0.982430000000     0.00487827 
C495     C      0.647580000000     0.862740000000     0.983520000000     0.00663624 
C496     C      0.625920000000     0.835530000000     0.002730000000    -0.112162   
C497     C      0.647880000000     0.808290000000     0.521740000000     0.00140903 
C498     C      0.690950000000     0.808740000000     0.521900000000     0.000890495
C499     C      0.712600000000     0.835390000000     0.502240000000    -0.106528   
C500     C      0.690620000000     0.862160000000     0.982880000000     0.00493366 
C501     C      0.503390000000     0.798220000000     0.861480000000    -0.000247014
C502     C      0.503430000000     0.835580000000     0.845050000000    -0.10638    
C503     C      0.503420000000     0.872790000000     0.861600000000    -0.000241088
C504     C      0.503330000000     0.872650000000     0.893790000000    -0.000834807
C505     C      0.503250000000     0.835280000000     0.910220000000    -0.105199   
C506     C      0.503300000000     0.798070000000     0.893680000000    -0.000905404
C507     C      0.502410000000     0.872780000000     0.611590000000    -0.00052788 
C508     C      0.502440000000     0.835560000000     0.595060000000    -0.106281   
C509     C      0.502370000000     0.798200000000     0.611490000000    -0.000519098
C510     C      0.502330000000     0.798070000000     0.643680000000    -0.000626067
C511     C      0.502350000000     0.835290000000     0.660220000000    -0.106177   
C512     C      0.502370000000     0.872650000000     0.643790000000    -0.000577325
H1       H      0.170110000000     0.964810000000     0.202240000000     0.0386427  
H2       H      0.170050000000     0.965150000000     0.301830000000     0.0386479  
H3       H      0.170070000000     0.040110000000     0.301660000000     0.0386563  
H4       H      0.170160000000     0.039770000000     0.202060000000     0.0385954  
H5       H      0.169920000000     0.040250000000     0.452140000000     0.0386558  
H6       H      0.170300000000     0.039140000000     0.051740000000     0.0384169  
H7       H      0.170320000000     0.964180000000     0.051280000000     0.0384679  
H8       H      0.169930000000     0.965290000000     0.451690000000     0.0386525  
H9       H      0.965600000000     0.170060000000     0.302100000000     0.0385932  
H10      H      0.965390000000     0.169290000000     0.202510000000     0.038657   
H11      H      0.040340000000     0.169300000000     0.202440000000     0.0385475  
H12      H      0.040570000000     0.170100000000     0.302040000000     0.0386767  
H13      H      0.965010000000     0.169680000000     0.051430000000     0.0384913  
H14      H      0.965960000000     0.169360000000     0.451840000000     0.0385801  
H15      H      0.040920000000     0.169380000000     0.452220000000     0.0387078  
H16      H      0.039970000000     0.169690000000     0.051810000000     0.0384077  
H17      H      0.965470000000     0.834950000000     0.201670000000     0.038383   
H18      H      0.965380000000     0.835170000000     0.301270000000     0.0388286  
H19      H      0.040310000000     0.835250000000     0.301290000000     0.0388032  
H20      H      0.040460000000     0.835010000000     0.201700000000     0.0384337  
H21      H      0.836610000000     0.965330000000     0.203340000000     0.0387252  
H22      H      0.835000000000     0.964340000000     0.302930000000     0.0385525  
H23      H      0.835060000000     0.039510000000     0.303260000000     0.0384974  
H24      H      0.836670000000     0.040060000000     0.203670000000     0.0387139  
H25      H      0.965510000000     0.836150000000     0.049570000000     0.0401829  
H26      H      0.965170000000     0.834090000000     0.449980000000     0.0387331  
H27      H      0.040300000000     0.834110000000     0.449910000000     0.0386713  
H28      H      0.040290000000     0.836180000000     0.049500000000     0.0385577  
H29      H      0.834980000000     0.964700000000     0.051740000000     0.0383351  
H30      H      0.836380000000     0.964870000000     0.452140000000     0.0387413  
H31      H      0.836430000000     0.039650000000     0.452140000000     0.038763   
H32      H      0.835030000000     0.039840000000     0.051730000000     0.0383691  
H33      H      0.122100000000     0.631120000000     0.286230000000     0.0357302  
H34      H      0.217850000000     0.631060000000     0.217230000000     0.0354091  
H35      H      0.217180000000     0.706670000000     0.216680000000     0.0355372  
H36      H      0.122820000000     0.706710000000     0.286740000000     0.035746   
H37      H      0.217430000000     0.373960000000     0.286660000000     0.0353247  
H38      H      0.122570000000     0.373710000000     0.216980000000     0.0355323  
H39      H      0.123290000000     0.298120000000     0.216600000000     0.0356217  
H40      H      0.216750000000     0.298350000000     0.287320000000     0.0355291  
H41      H      0.217830000000     0.630500000000     0.466290000000     0.0353514  
H42      H      0.121140000000     0.631180000000     0.034540000000     0.0333103  
H43      H      0.121790000000     0.706750000000     0.034630000000     0.0379854  
H44      H      0.217100000000     0.706140000000     0.465300000000     0.0354889  
H45      H      0.122770000000     0.373900000000     0.037620000000     0.0347869  
H46      H      0.218280000000     0.373270000000     0.468440000000     0.0350764  
H47      H      0.217670000000     0.297680000000     0.468360000000     0.0342491  
H48      H      0.123580000000     0.298250000000     0.038620000000     0.0348922  
H49      H      0.102560000000     0.500960000000     0.348610000000     0.0387996  
H50      H      0.235730000000     0.502790000000     0.348800000000     0.0386141  
H51      H      0.235630000000     0.502320000000     0.404770000000     0.0385172  
H52      H      0.102460000000     0.500500000000     0.404750000000     0.0388051  
H53      H      0.237520000000     0.502280000000     0.098710000000     0.0386513  
H54      H      0.104350000000     0.504060000000     0.098700000000     0.0383336  
H55      H      0.104250000000     0.503810000000     0.154670000000     0.0384862  
H56      H      0.237410000000     0.502020000000     0.154850000000     0.0386991  
H57      H      0.374260000000     0.121630000000     0.285940000000     0.0356373  
H58      H      0.374430000000     0.216840000000     0.216530000000     0.0355062  
H59      H      0.298790000000     0.216240000000     0.215980000000     0.035698   
H60      H      0.298690000000     0.122430000000     0.286450000000     0.0356028  
H61      H      0.631420000000     0.217030000000     0.287300000000     0.0355857  
H62      H      0.631790000000     0.121270000000     0.218310000000     0.035525   
H63      H      0.707360000000     0.121980000000     0.217990000000     0.0355332  
H64      H      0.707040000000     0.216360000000     0.288040000000     0.0357685  
H65      H      0.374560000000     0.121680000000     0.037710000000     0.0351255  
H66      H      0.374090000000     0.217240000000     0.968560000000     0.0353748  
H67      H      0.298520000000     0.216630000000     0.968380000000     0.034293   
H68      H      0.298910000000     0.122490000000     0.038590000000     0.0350369  
H69      H      0.631310000000     0.122030000000     0.465900000000     0.0355192  
H70      H      0.631860000000     0.217020000000     0.035490000000     0.0347433  
H71      H      0.707420000000     0.216450000000     0.035590000000     0.0341637  
H72      H      0.706960000000     0.122890000000     0.464950000000     0.0352776  
H73      H      0.501740000000     0.235890000000     0.404960000000     0.0386772  
H74      H      0.501740000000     0.102710000000     0.405000000000     0.0386072  
H75      H      0.501870000000     0.102680000000     0.348940000000     0.0386749  
H76      H      0.501840000000     0.235860000000     0.348900000000     0.0386832  
H77      H      0.504050000000     0.102670000000     0.154960000000     0.0385265  
H78      H      0.504090000000     0.235850000000     0.155000000000     0.0385818  
H79      H      0.504180000000     0.235880000000     0.098940000000     0.0385088  
H80      H      0.504160000000     0.102700000000     0.098900000000     0.0385627  
H81      H      0.788400000000     0.372860000000     0.215090000000     0.0352794  
H82      H      0.883510000000     0.374530000000     0.284560000000     0.0355983  
H83      H      0.882660000000     0.298950000000     0.286230000000     0.0355723  
H84      H      0.788950000000     0.297260000000     0.215700000000     0.0354457  
H85      H      0.882620000000     0.631470000000     0.213760000000     0.0353688  
H86      H      0.788100000000     0.630460000000     0.283700000000     0.0352999  
H87      H      0.788840000000     0.706030000000     0.284870000000     0.0343036  
H88      H      0.881920000000     0.707120000000     0.213880000000     0.0350284  
H89      H      0.882740000000     0.373230000000     0.963910000000     0.0361791  
H90      H      0.788270000000     0.374020000000     0.533890000000     0.0352208  
H91      H      0.789030000000     0.298440000000     0.534940000000     0.0343336  
H92      H      0.882060000000     0.297590000000     0.963910000000     0.0356151  
H93      H      0.883800000000     0.630550000000     0.033580000000     0.0350351  
H94      H      0.788120000000     0.631250000000     0.464530000000     0.035429   
H95      H      0.788730000000     0.706870000000     0.464490000000     0.0354836  
H96      H      0.883030000000     0.706120000000     0.034600000000     0.0368281  
H97      H      0.769180000000     0.500750000000     0.401810000000     0.0387596  
H98      H      0.902310000000     0.504360000000     0.401800000000     0.0388784  
H99      H      0.902300000000     0.504520000000     0.345740000000     0.0387557  
H100     H      0.769170000000     0.500900000000     0.345750000000     0.0386956  
H101     H      0.769180000000     0.503670000000     0.151800000000     0.0386602  
H102     H      0.902310000000     0.500140000000     0.151810000000     0.0385421  
H103     H      0.902320000000     0.500220000000     0.095750000000     0.038053   
H104     H      0.769190000000     0.503760000000     0.095740000000     0.0381563  
H105     H      0.298790000000     0.883020000000     0.217960000000     0.0355344  
H106     H      0.298550000000     0.788160000000     0.287640000000     0.0354947  
H107     H      0.374180000000     0.787540000000     0.287290000000     0.035288   
H108     H      0.374390000000     0.883810000000     0.218700000000     0.0354497  
H109     H      0.631230000000     0.883290000000     0.217500000000     0.035416   
H110     H      0.631840000000     0.786950000000     0.286030000000     0.035165   
H111     H      0.707440000000     0.787530000000     0.286090000000     0.0342951  
H112     H      0.706860000000     0.882460000000     0.216480000000     0.0351933  
H113     H      0.374450000000     0.883690000000     0.468180000000     0.0354761  
H114     H      0.373910000000     0.786890000000     0.036350000000     0.0347182  
H115     H      0.298270000000     0.787450000000     0.036450000000     0.0351981  
H116     H      0.298870000000     0.882850000000     0.467190000000     0.0356191  
H117     H      0.631200000000     0.883890000000     0.468590000000     0.0354071  
H118     H      0.631720000000     0.787150000000     0.036810000000     0.0348091  
H119     H      0.707350000000     0.787730000000     0.036930000000     0.035351   
H120     H      0.706770000000     0.883070000000     0.467620000000     0.0355365  
H121     H      0.503400000000     0.768950000000     0.349500000000     0.0385506  
H122     H      0.503440000000     0.902130000000     0.349710000000     0.0387201  
H123     H      0.503290000000     0.901920000000     0.405770000000     0.0385806  
H124     H      0.503250000000     0.768730000000     0.405560000000     0.0387072  
H125     H      0.502460000000     0.902110000000     0.099700000000     0.0386104  
H126     H      0.502380000000     0.768930000000     0.099520000000     0.0385284  
H127     H      0.502310000000     0.768740000000     0.155570000000     0.0387756  
H128     H      0.502390000000     0.901920000000     0.155760000000     0.0385564  
H129     H      0.170110000000     0.964810000000     0.702240000000     0.0386492  
H130     H      0.170050000000     0.965150000000     0.801840000000     0.0386826  
H131     H      0.170070000000     0.040110000000     0.801660000000     0.0387237  
H132     H      0.170160000000     0.039770000000     0.702060000000     0.0386019  
H133     H      0.169920000000     0.040250000000     0.952140000000     0.0383114  
H134     H      0.170300000000     0.039140000000     0.551740000000     0.0385853  
H135     H      0.170320000000     0.964180000000     0.551280000000     0.0386681  
H136     H      0.169930000000     0.965290000000     0.951690000000     0.0382645  
H137     H      0.965600000000     0.170060000000     0.802100000000     0.0386308  
H138     H      0.965390000000     0.169290000000     0.702510000000     0.0386703  
H139     H      0.040340000000     0.169300000000     0.702440000000     0.0385649  
H140     H      0.040570000000     0.170100000000     0.802040000000     0.0387672  
H141     H      0.965010000000     0.169680000000     0.551430000000     0.0386936  
H142     H      0.965960000000     0.169360000000     0.951840000000     0.0381953  
H143     H      0.040920000000     0.169380000000     0.952220000000     0.0383654  
H144     H      0.039970000000     0.169690000000     0.551810000000     0.0385717  
H145     H      0.965470000000     0.834950000000     0.701670000000     0.0384034  
H146     H      0.965380000000     0.835170000000     0.801270000000     0.0388611  
H147     H      0.040310000000     0.835250000000     0.801290000000     0.0388492  
H148     H      0.040460000000     0.835010000000     0.701690000000     0.0384678  
H149     H      0.836610000000     0.965330000000     0.703340000000     0.0387325  
H150     H      0.835000000000     0.964340000000     0.802930000000     0.0385887  
H151     H      0.835060000000     0.039510000000     0.803260000000     0.0385686  
H152     H      0.836670000000     0.040060000000     0.703670000000     0.0387527  
H153     H      0.965510000000     0.836150000000     0.549570000000     0.0385646  
H154     H      0.965170000000     0.834090000000     0.949980000000     0.0401545  
H155     H      0.040300000000     0.834110000000     0.949910000000     0.0384527  
H156     H      0.040290000000     0.836180000000     0.549500000000     0.038618   
H157     H      0.834980000000     0.964700000000     0.551740000000     0.0385284  
H158     H      0.836380000000     0.964870000000     0.952140000000     0.0383447  
H159     H      0.836430000000     0.039650000000     0.952140000000     0.038379   
H160     H      0.835030000000     0.039840000000     0.551730000000     0.0385503  
H161     H      0.122100000000     0.631120000000     0.786230000000     0.0357928  
H162     H      0.217850000000     0.631060000000     0.717230000000     0.0354561  
H163     H      0.217180000000     0.706670000000     0.716680000000     0.0355795  
H164     H      0.122820000000     0.706710000000     0.786740000000     0.0357865  
H165     H      0.217430000000     0.373960000000     0.786660000000     0.0354092  
H166     H      0.122570000000     0.373710000000     0.716980000000     0.0355441  
H167     H      0.123290000000     0.298120000000     0.716600000000     0.0356494  
H168     H      0.216750000000     0.298350000000     0.787320000000     0.0356054  
H169     H      0.217830000000     0.630500000000     0.966290000000     0.0338675  
H170     H      0.121140000000     0.631180000000     0.534550000000     0.0353753  
H171     H      0.121790000000     0.706750000000     0.534630000000     0.0354555  
H172     H      0.217100000000     0.706140000000     0.965300000000     0.0385112  
H173     H      0.122770000000     0.373900000000     0.537620000000     0.0353782  
H174     H      0.218280000000     0.373270000000     0.968440000000     0.0350694  
H175     H      0.217670000000     0.297680000000     0.968360000000     0.0342932  
H176     H      0.123580000000     0.298250000000     0.538620000000     0.0351269  
H177     H      0.102560000000     0.500960000000     0.848610000000     0.0388661  
H178     H      0.235730000000     0.502790000000     0.848800000000     0.0387466  
H179     H      0.235630000000     0.502320000000     0.904770000000     0.0390974  
H180     H      0.102460000000     0.500500000000     0.904750000000     0.039333   
H181     H      0.237520000000     0.502280000000     0.598710000000     0.038859   
H182     H      0.104350000000     0.504060000000     0.598700000000     0.0384966  
H183     H      0.104250000000     0.503810000000     0.654680000000     0.0385448  
H184     H      0.237410000000     0.502020000000     0.654850000000     0.0387974  
H185     H      0.374260000000     0.121630000000     0.785940000000     0.0357082  
H186     H      0.374430000000     0.216840000000     0.716530000000     0.0355545  
H187     H      0.298790000000     0.216240000000     0.715980000000     0.0357316  
H188     H      0.298690000000     0.122430000000     0.786450000000     0.0356645  
H189     H      0.631420000000     0.217030000000     0.787300000000     0.035691   
H190     H      0.631790000000     0.121270000000     0.718310000000     0.0355657  
H191     H      0.707360000000     0.121980000000     0.717990000000     0.0355379  
H192     H      0.707040000000     0.216360000000     0.788040000000     0.0358443  
H193     H      0.374560000000     0.121680000000     0.537710000000     0.0356545  
H194     H      0.374090000000     0.217240000000     0.468560000000     0.0353765  
H195     H      0.298520000000     0.216630000000     0.468380000000     0.034243   
H196     H      0.298910000000     0.122490000000     0.538590000000     0.0352128  
H197     H      0.631310000000     0.122030000000     0.965900000000     0.0354822  
H198     H      0.631860000000     0.217020000000     0.535490000000     0.0353206  
H199     H      0.707420000000     0.216450000000     0.535590000000     0.0343901  
H200     H      0.706960000000     0.122890000000     0.964950000000     0.0353758  
H201     H      0.501740000000     0.235890000000     0.904960000000     0.0392795  
H202     H      0.501740000000     0.102710000000     0.905000000000     0.0391742  
H203     H      0.501870000000     0.102680000000     0.848940000000     0.0387607  
H204     H      0.501840000000     0.235860000000     0.848900000000     0.0388218  
H205     H      0.504050000000     0.102670000000     0.654960000000     0.03856    
H206     H      0.504090000000     0.235850000000     0.655000000000     0.038677   
H207     H      0.504180000000     0.235880000000     0.598940000000     0.038695   
H208     H      0.504160000000     0.102700000000     0.598900000000     0.0386776  
H209     H      0.788400000000     0.372860000000     0.715090000000     0.0353481  
H210     H      0.883510000000     0.374530000000     0.784560000000     0.0356375  
H211     H      0.882660000000     0.298950000000     0.786230000000     0.0356108  
H212     H      0.788950000000     0.297260000000     0.715700000000     0.0354893  
H213     H      0.882620000000     0.631470000000     0.713760000000     0.0354159  
H214     H      0.788100000000     0.630460000000     0.783700000000     0.035362   
H215     H      0.788840000000     0.706030000000     0.784870000000     0.0343617  
H216     H      0.881920000000     0.707120000000     0.713880000000     0.0350581  
H217     H      0.882740000000     0.373230000000     0.463910000000     0.0355284  
H218     H      0.788270000000     0.374020000000     0.033890000000     0.0353249  
H219     H      0.789030000000     0.298440000000     0.034940000000     0.034459   
H220     H      0.882060000000     0.297590000000     0.463910000000     0.0352454  
H221     H      0.883800000000     0.630550000000     0.533580000000     0.035464   
H222     H      0.788120000000     0.631250000000     0.964530000000     0.0355545  
H223     H      0.788730000000     0.706870000000     0.964490000000     0.0372215  
H224     H      0.883030000000     0.706120000000     0.534600000000     0.035491   
H225     H      0.769180000000     0.500750000000     0.901810000000     0.0390228  
H226     H      0.902310000000     0.504360000000     0.901800000000     0.0391093  
H227     H      0.902300000000     0.504520000000     0.845740000000     0.0388351  
H228     H      0.769170000000     0.500900000000     0.845750000000     0.0388276  
H229     H      0.769180000000     0.503670000000     0.651800000000     0.0387649  
H230     H      0.902310000000     0.500140000000     0.651810000000     0.0385851  
H231     H      0.902320000000     0.500220000000     0.595750000000     0.0385095  
H232     H      0.769190000000     0.503760000000     0.595740000000     0.038689   
H233     H      0.298790000000     0.883020000000     0.717960000000     0.0355451  
H234     H      0.298550000000     0.788160000000     0.787640000000     0.035574   
H235     H      0.374180000000     0.787540000000     0.787290000000     0.0353904  
H236     H      0.374390000000     0.883810000000     0.718700000000     0.0354637  
H237     H      0.631230000000     0.883290000000     0.717500000000     0.0354369  
H238     H      0.631840000000     0.786950000000     0.786030000000     0.0352569  
H239     H      0.707440000000     0.787530000000     0.786090000000     0.0343581  
H240     H      0.706860000000     0.882460000000     0.716480000000     0.0352123  
H241     H      0.374450000000     0.883690000000     0.968180000000     0.0355145  
H242     H      0.373910000000     0.786890000000     0.536350000000     0.0352938  
H243     H      0.298270000000     0.787450000000     0.536450000000     0.0354967  
H244     H      0.298870000000     0.882850000000     0.967190000000     0.0357361  
H245     H      0.631200000000     0.883890000000     0.968590000000     0.0354023  
H246     H      0.631720000000     0.787150000000     0.536810000000     0.0354142  
H247     H      0.707350000000     0.787730000000     0.536930000000     0.0356927  
H248     H      0.706770000000     0.883070000000     0.967620000000     0.0356274  
H249     H      0.503400000000     0.768950000000     0.849500000000     0.0386965  
H250     H      0.503440000000     0.902130000000     0.849710000000     0.0388023  
H251     H      0.503290000000     0.901920000000     0.905770000000     0.0391288  
H252     H      0.503250000000     0.768730000000     0.905560000000     0.0393402  
H253     H      0.502460000000     0.902110000000     0.599700000000     0.0387377  
H254     H      0.502380000000     0.768930000000     0.599520000000     0.0386975  
H255     H      0.502310000000     0.768740000000     0.655570000000     0.0388685  
H256     H      0.502390000000     0.901920000000     0.655760000000     0.038592   
O1       O      0.502600000000     0.869970000000     0.046260000000    -0.541726   
O2       O      0.502970000000     0.869730000000     0.458800000000    -0.54488    
O3       O      0.444310000000     0.869830000000     0.002110000000    -0.54372    
O4       O      0.561260000000     0.869940000000     0.502380000000    -0.542745   
O5       O      0.561330000000     0.800980000000     0.003190000000    -0.543292   
O6       O      0.444370000000     0.800870000000     0.502920000000    -0.542787   
O7       O      0.503040000000     0.800850000000     0.459030000000    -0.542268   
O8       O      0.502670000000     0.801090000000     0.046490000000    -0.544095   
O9       O      0.503330000000     0.870000000000     0.296240000000    -0.54235    
O10      O      0.502620000000     0.869760000000     0.208780000000    -0.545003   
O11      O      0.444500000000     0.870040000000     0.252490000000    -0.542567   
O12      O      0.561460000000     0.869800000000     0.251920000000    -0.542496   
O13      O      0.561310000000     0.800830000000     0.252730000000    -0.542729   
O14      O      0.444360000000     0.801070000000     0.253310000000    -0.542693   
O15      O      0.502480000000     0.800870000000     0.209020000000    -0.542345   
O16      O      0.503190000000     0.801130000000     0.296470000000    -0.545149   
O17      O      0.870180000000     0.503350000000     0.455050000000    -0.543312   
O18      O      0.870180000000     0.501020000000     0.042490000000    -0.547283   
O19      O      0.870100000000     0.443720000000     0.497700000000    -0.542292   
O20      O      0.870320000000     0.560650000000     0.999840000000    -0.541365   
O21      O      0.801390000000     0.560780000000     0.497840000000    -0.542619   
O22      O      0.801180000000     0.443860000000     0.999710000000    -0.541421   
O23      O      0.801340000000     0.503290000000     0.042500000000    -0.54737    
O24      O      0.801330000000     0.501350000000     0.455050000000    -0.543566   
O25      O      0.870160000000     0.501070000000     0.205060000000    -0.543464   
O26      O      0.870150000000     0.503780000000     0.292500000000    -0.543292   
O27      O      0.870340000000     0.443960000000     0.250040000000    -0.5423     
O28      O      0.870030000000     0.560900000000     0.247560000000    -0.541925   
O29      O      0.801100000000     0.560690000000     0.249580000000    -0.542504   
O30      O      0.801420000000     0.443770000000     0.248030000000    -0.542704   
O31      O      0.801310000000     0.501450000000     0.292510000000    -0.543463   
O32      O      0.801310000000     0.503010000000     0.205050000000    -0.54353    
O33      O      0.501210000000     0.134900000000     0.458240000000    -0.543307   
O34      O      0.504730000000     0.134900000000     0.045660000000    -0.542467   
O35      O      0.444500000000     0.134870000000     0.503500000000    -0.541992   
O36      O      0.561430000000     0.134900000000     0.000390000000    -0.543054   
O37      O      0.561410000000     0.203820000000     0.502340000000    -0.542992   
O38      O      0.444500000000     0.203790000000     0.001550000000    -0.544098   
O39      O      0.502670000000     0.203750000000     0.045680000000    -0.542796   
O40      O      0.503230000000     0.203750000000     0.458220000000    -0.543565   
O41      O      0.503410000000     0.134820000000     0.295680000000    -0.543452   
O42      O      0.502510000000     0.134820000000     0.208220000000    -0.543687   
O43      O      0.561420000000     0.134760000000     0.251410000000    -0.54284    
O44      O      0.444500000000     0.134790000000     0.252500000000    -0.542769   
O45      O      0.444520000000     0.203720000000     0.250550000000    -0.542304   
O46      O      0.561440000000     0.203680000000     0.253360000000    -0.542463   
O47      O      0.504570000000     0.203660000000     0.208240000000    -0.543609   
O48      O      0.501380000000     0.203670000000     0.295660000000    -0.543482   
O49      O      0.136150000000     0.502790000000     0.045730000000    -0.544652   
O50      O      0.134950000000     0.501380000000     0.458290000000    -0.542002   
O51      O      0.135730000000     0.443600000000     0.002870000000    -0.543044   
O52      O      0.135300000000     0.560550000000     0.501730000000    -0.54276    
O53      O      0.204260000000     0.560800000000     0.000620000000    -0.544097   
O54      O      0.204690000000     0.443860000000     0.501690000000    -0.542716   
O55      O      0.203830000000     0.501690000000     0.457730000000    -0.545115   
O56      O      0.205020000000     0.502980000000     0.045180000000    -0.541434   
O57      O      0.136040000000     0.503610000000     0.207850000000    -0.543701   
O58      O      0.135090000000     0.501290000000     0.295290000000    -0.543073   
O59      O      0.135520000000     0.560920000000     0.252610000000    -0.542446   
O60      O      0.135560000000     0.443990000000     0.250530000000    -0.542449   
O61      O      0.204460000000     0.444010000000     0.252840000000    -0.542688   
O62      O      0.204460000000     0.560930000000     0.250970000000    -0.542651   
O63      O      0.203940000000     0.503400000000     0.295620000000    -0.543763   
O64      O      0.204890000000     0.501530000000     0.208170000000    -0.543046   
O65      O      0.893650000000     0.834590000000     0.474490000000    -0.542095   
O66      O      0.776680000000     0.837020000000     0.475810000000    -0.543019   
O67      O      0.836180000000     0.894030000000     0.475780000000    -0.544822   
O68      O      0.833750000000     0.777180000000     0.474500000000    -0.542207   
O69      O      0.837580000000     0.776130000000     0.026000000000    -0.539603   
O70      O      0.835180000000     0.893120000000     0.027280000000    -0.540617   
O71      O      0.777740000000     0.833230000000     0.027310000000    -0.540491   
O72      O      0.894600000000     0.835640000000     0.025990000000    -0.541592   
O73      O      0.894320000000     0.835870000000     0.225690000000    -0.544645   
O74      O      0.777370000000     0.836270000000     0.225490000000    -0.542071   
O75      O      0.835960000000     0.894310000000     0.226590000000    -0.545025   
O76      O      0.836110000000     0.777440000000     0.224610000000    -0.542308   
O77      O      0.835260000000     0.775920000000     0.276190000000    -0.542493   
O78      O      0.835590000000     0.892910000000     0.278090000000    -0.541834   
O79      O      0.777160000000     0.834070000000     0.277060000000    -0.542999   
O80      O      0.894110000000     0.834340000000     0.277180000000    -0.542605   
O81      O      0.836180000000     0.110490000000     0.475760000000    -0.545239   
O82      O      0.836410000000     0.227350000000     0.474390000000    -0.542478   
O83      O      0.894600000000     0.168890000000     0.475480000000    -0.544406   
O84      O      0.777620000000     0.168560000000     0.474700000000    -0.541596   
O85      O      0.777020000000     0.170280000000     0.026280000000    -0.542021   
O86      O      0.893940000000     0.170010000000     0.026980000000    -0.541737   
O87      O      0.835120000000     0.228440000000     0.025970000000    -0.545623   
O88      O      0.835410000000     0.111430000000     0.027260000000    -0.540848   
O89      O      0.836690000000     0.110600000000     0.227500000000    -0.546281   
O90      O      0.834180000000     0.227360000000     0.226160000000    -0.543399   
O91      O      0.894110000000     0.170040000000     0.226680000000    -0.543208   
O92      O      0.777160000000     0.167520000000     0.227090000000    -0.543626   
O93      O      0.777570000000     0.171300000000     0.278590000000    -0.5415     
O94      O      0.894480000000     0.169080000000     0.278180000000    -0.543943   
O95      O      0.837340000000     0.228520000000     0.277680000000    -0.541587   
O96      O      0.835100000000     0.111440000000     0.278980000000    -0.540834   
O97      O      0.169690000000     0.110540000000     0.028160000000    -0.542581   
O98      O      0.169550000000     0.227520000000     0.029020000000    -0.540124   
O99      O      0.111310000000     0.169050000000     0.028190000000    -0.542662   
O100     O      0.228280000000     0.168630000000     0.029010000000    -0.540048   
O101     O      0.228930000000     0.170010000000     0.477430000000    -0.543585   
O102     O      0.112000000000     0.169850000000     0.476690000000    -0.543258   
O103     O      0.170890000000     0.228180000000     0.477440000000    -0.543582   
O104     O      0.170460000000     0.111270000000     0.476660000000    -0.543388   
O105     O      0.169370000000     0.111080000000     0.277530000000    -0.544455   
O106     O      0.171770000000     0.227970000000     0.277660000000    -0.542273   
O107     O      0.111900000000     0.170530000000     0.277820000000    -0.542545   
O108     O      0.228850000000     0.168110000000     0.277280000000    -0.543166   
O109     O      0.228320000000     0.171040000000     0.225740000000    -0.542005   
O110     O      0.111430000000     0.168740000000     0.226330000000    -0.544542   
O111     O      0.168520000000     0.228180000000     0.226130000000    -0.542865   
O112     O      0.170830000000     0.111210000000     0.226030000000    -0.542571   
O113     O      0.111110000000     0.835820000000     0.025790000000    -0.548429   
O114     O      0.227960000000     0.833230000000     0.026940000000    -0.541186   
O115     O      0.170620000000     0.893160000000     0.026760000000    -0.542264   
O116     O      0.168010000000     0.776270000000     0.025960000000    -0.540749   
O117     O      0.171710000000     0.776920000000     0.474460000000    -0.541141   
O118     O      0.169490000000     0.893890000000     0.475270000000    -0.543414   
O119     O      0.228900000000     0.836720000000     0.475420000000    -0.542299   
O120     O      0.111910000000     0.834480000000     0.474290000000    -0.541526   
O121     O      0.111330000000     0.836120000000     0.277430000000    -0.544617   
O122     O      0.228200000000     0.833850000000     0.278140000000    -0.542345   
O123     O      0.170710000000     0.893670000000     0.277840000000    -0.542476   
O124     O      0.168420000000     0.776700000000     0.277620000000    -0.542931   
O125     O      0.171790000000     0.777000000000     0.226100000000    -0.54225    
O126     O      0.169340000000     0.893880000000     0.226340000000    -0.544508   
O127     O      0.228860000000     0.836870000000     0.226610000000    -0.542577   
O128     O      0.111870000000     0.834400000000     0.225940000000    -0.542289   
O129     O      0.502600000000     0.869970000000     0.546260000000    -0.542511   
O130     O      0.502970000000     0.869730000000     0.958800000000    -0.541136   
O131     O      0.444310000000     0.869830000000     0.502110000000    -0.542756   
O132     O      0.561260000000     0.869940000000     0.002380000000    -0.543731   
O133     O      0.561330000000     0.800980000000     0.503190000000    -0.542668   
O134     O      0.444370000000     0.800870000000     0.002920000000    -0.543391   
O135     O      0.503040000000     0.800850000000     0.959030000000    -0.538433   
O136     O      0.502670000000     0.801090000000     0.546490000000    -0.544902   
O137     O      0.503330000000     0.870000000000     0.796240000000    -0.542319   
O138     O      0.502620000000     0.869760000000     0.708780000000    -0.544999   
O139     O      0.444500000000     0.870040000000     0.752490000000    -0.542547   
O140     O      0.561460000000     0.869800000000     0.751920000000    -0.542478   
O141     O      0.561310000000     0.800830000000     0.752730000000    -0.542695   
O142     O      0.444360000000     0.801070000000     0.753310000000    -0.54266    
O143     O      0.502480000000     0.800870000000     0.709020000000    -0.542323   
O144     O      0.503190000000     0.801130000000     0.796470000000    -0.545102   
O145     O      0.870180000000     0.503350000000     0.955050000000    -0.544097   
O146     O      0.870180000000     0.501020000000     0.542490000000    -0.543526   
O147     O      0.870100000000     0.443720000000     0.997700000000    -0.541619   
O148     O      0.870320000000     0.560650000000     0.499840000000    -0.542329   
O149     O      0.801390000000     0.560780000000     0.997840000000    -0.542104   
O150     O      0.801180000000     0.443860000000     0.499710000000    -0.542529   
O151     O      0.801340000000     0.503290000000     0.542500000000    -0.543582   
O152     O      0.801330000000     0.501350000000     0.955050000000    -0.544334   
O153     O      0.870160000000     0.501070000000     0.705060000000    -0.54345    
O154     O      0.870150000000     0.503780000000     0.792500000000    -0.543271   
O155     O      0.870340000000     0.443960000000     0.750040000000    -0.542282   
O156     O      0.870030000000     0.560900000000     0.747560000000    -0.541909   
O157     O      0.801100000000     0.560690000000     0.749580000000    -0.542468   
O158     O      0.801420000000     0.443770000000     0.748030000000    -0.542669   
O159     O      0.801310000000     0.501450000000     0.792510000000    -0.543425   
O160     O      0.801310000000     0.503010000000     0.705050000000    -0.543498   
O161     O      0.501210000000     0.134900000000     0.958240000000    -0.539541   
O162     O      0.504730000000     0.134900000000     0.545660000000    -0.543286   
O163     O      0.444500000000     0.134870000000     0.003500000000    -0.542566   
O164     O      0.561430000000     0.134900000000     0.500380000000    -0.542026   
O165     O      0.561410000000     0.203820000000     0.002340000000    -0.543583   
O166     O      0.444500000000     0.203790000000     0.501550000000    -0.543078   
O167     O      0.502670000000     0.203750000000     0.545680000000    -0.543577   
O168     O      0.503230000000     0.203750000000     0.958220000000    -0.539772   
O169     O      0.503410000000     0.134820000000     0.795680000000    -0.543421   
O170     O      0.502510000000     0.134820000000     0.708220000000    -0.543684   
O171     O      0.561420000000     0.134760000000     0.751410000000    -0.542818   
O172     O      0.444500000000     0.134790000000     0.752500000000    -0.542755   
O173     O      0.444520000000     0.203720000000     0.750550000000    -0.542268   
O174     O      0.561440000000     0.203680000000     0.753360000000    -0.542426   
O175     O      0.504570000000     0.203660000000     0.708240000000    -0.543588   
O176     O      0.501380000000     0.203670000000     0.795660000000    -0.543435   
O177     O      0.136150000000     0.502790000000     0.545730000000    -0.545448   
O178     O      0.134950000000     0.501380000000     0.958290000000    -0.538232   
O179     O      0.135730000000     0.443600000000     0.502880000000    -0.542377   
O180     O      0.135300000000     0.560550000000     0.001740000000    -0.543837   
O181     O      0.204260000000     0.560800000000     0.500620000000    -0.542666   
O182     O      0.204690000000     0.443860000000     0.001690000000    -0.543743   
O183     O      0.203830000000     0.501690000000     0.957730000000    -0.541376   
O184     O      0.205020000000     0.502980000000     0.545180000000    -0.542159   
O185     O      0.136040000000     0.503610000000     0.707850000000    -0.543675   
O186     O      0.135090000000     0.501290000000     0.795290000000    -0.543063   
O187     O      0.135520000000     0.560920000000     0.752610000000    -0.542429   
O188     O      0.135560000000     0.443990000000     0.750520000000    -0.54242    
O189     O      0.204460000000     0.444010000000     0.752840000000    -0.542654   
O190     O      0.204460000000     0.560930000000     0.750970000000    -0.542614   
O191     O      0.203940000000     0.503400000000     0.795620000000    -0.543722   
O192     O      0.204890000000     0.501530000000     0.708170000000    -0.543019   
O193     O      0.893650000000     0.834590000000     0.974490000000    -0.536581   
O194     O      0.776680000000     0.837020000000     0.975810000000    -0.539154   
O195     O      0.836180000000     0.894030000000     0.975780000000    -0.541021   
O196     O      0.833750000000     0.777180000000     0.974500000000    -0.536664   
O197     O      0.837580000000     0.776130000000     0.526000000000    -0.542729   
O198     O      0.835180000000     0.893120000000     0.527280000000    -0.542054   
O199     O      0.777740000000     0.833230000000     0.527310000000    -0.541949   
O200     O      0.894600000000     0.835640000000     0.525990000000    -0.544737   
O201     O      0.894320000000     0.835870000000     0.725690000000    -0.544639   
O202     O      0.777370000000     0.836270000000     0.725490000000    -0.542053   
O203     O      0.835960000000     0.894310000000     0.726590000000    -0.545026   
O204     O      0.836110000000     0.777440000000     0.724610000000    -0.542278   
O205     O      0.835260000000     0.775920000000     0.776190000000    -0.542477   
O206     O      0.835590000000     0.892910000000     0.778090000000    -0.541823   
O207     O      0.777160000000     0.834070000000     0.777060000000    -0.542973   
O208     O      0.894110000000     0.834340000000     0.777180000000    -0.542598   
O209     O      0.836180000000     0.110490000000     0.975760000000    -0.541725   
O210     O      0.836410000000     0.227350000000     0.974390000000    -0.54322    
O211     O      0.894600000000     0.168890000000     0.975480000000    -0.540919   
O212     O      0.777620000000     0.168560000000     0.974700000000    -0.537913   
O213     O      0.777020000000     0.170280000000     0.526270000000    -0.543415   
O214     O      0.893940000000     0.170010000000     0.526980000000    -0.542843   
O215     O      0.835120000000     0.228440000000     0.525970000000    -0.542445   
O216     O      0.835410000000     0.111430000000     0.527260000000    -0.542004   
O217     O      0.836690000000     0.110600000000     0.727490000000    -0.546077   
O218     O      0.834180000000     0.227360000000     0.726160000000    -0.543368   
O219     O      0.894110000000     0.170040000000     0.726680000000    -0.543195   
O220     O      0.777160000000     0.167520000000     0.727090000000    -0.543609   
O221     O      0.777570000000     0.171300000000     0.778590000000    -0.541462   
O222     O      0.894480000000     0.169080000000     0.778180000000    -0.543929   
O223     O      0.837340000000     0.228520000000     0.777680000000    -0.541551   
O224     O      0.835100000000     0.111440000000     0.778980000000    -0.540729   
O225     O      0.169690000000     0.110540000000     0.528170000000    -0.543747   
O226     O      0.169550000000     0.227520000000     0.529020000000    -0.54144    
O227     O      0.111310000000     0.169050000000     0.528190000000    -0.544013   
O228     O      0.228280000000     0.168630000000     0.529010000000    -0.541378   
O229     O      0.228930000000     0.170010000000     0.977430000000    -0.539821   
O230     O      0.112000000000     0.169850000000     0.976690000000    -0.539523   
O231     O      0.170890000000     0.228180000000     0.977440000000    -0.539836   
O232     O      0.170460000000     0.111270000000     0.976660000000    -0.539726   
O233     O      0.169370000000     0.111080000000     0.777530000000    -0.544435   
O234     O      0.171770000000     0.227970000000     0.777660000000    -0.542238   
O235     O      0.111900000000     0.170530000000     0.777820000000    -0.542521   
O236     O      0.228850000000     0.168110000000     0.777280000000    -0.54313    
O237     O      0.228320000000     0.171040000000     0.725740000000    -0.541997   
O238     O      0.111430000000     0.168740000000     0.726330000000    -0.544535   
O239     O      0.168520000000     0.228180000000     0.726130000000    -0.54285    
O240     O      0.170830000000     0.111210000000     0.726030000000    -0.542571   
O241     O      0.111110000000     0.835820000000     0.525790000000    -0.545223   
O242     O      0.227960000000     0.833230000000     0.526940000000    -0.542402   
O243     O      0.170620000000     0.893160000000     0.526770000000    -0.543288   
O244     O      0.168010000000     0.776270000000     0.525960000000    -0.544005   
O245     O      0.171710000000     0.776920000000     0.974460000000    -0.535446   
O246     O      0.169490000000     0.893890000000     0.975270000000    -0.53993    
O247     O      0.228900000000     0.836720000000     0.975420000000    -0.538677   
O248     O      0.111910000000     0.834480000000     0.974290000000    -0.542337   
O249     O      0.111330000000     0.836120000000     0.777430000000    -0.544603   
O250     O      0.228200000000     0.833850000000     0.778140000000    -0.542309   
O251     O      0.170710000000     0.893670000000     0.777840000000    -0.542461   
O252     O      0.168420000000     0.776700000000     0.777620000000    -0.542898   
O253     O      0.171790000000     0.777000000000     0.726100000000    -0.542239   
O254     O      0.169340000000     0.893880000000     0.726340000000    -0.544509   
O255     O      0.228860000000     0.836870000000     0.726610000000    -0.542567   
O256     O      0.111870000000     0.834400000000     0.725940000000    -0.542279   
V1       V      0.502780000000     0.872640000000     0.002440000000     1.3794     
V2       V      0.502850000000     0.798180000000     0.502860000000     1.38611    
V3       V      0.502990000000     0.872670000000     0.252410000000     1.38375    
V4       V      0.502830000000     0.798210000000     0.252840000000     1.38657    
V5       V      0.872970000000     0.502180000000     0.498770000000     1.38353    
V6       V      0.798530000000     0.502330000000     0.998770000000     1.3913     
V7       V      0.872950000000     0.502430000000     0.248780000000     1.38281    
V8       V      0.798510000000     0.502220000000     0.248780000000     1.38622    
V9       V      0.502970000000     0.132110000000     0.501950000000     1.38228    
V10      V      0.502950000000     0.206550000000     0.001950000000     1.38239    
V11      V      0.502960000000     0.132020000000     0.251950000000     1.38443    
V12      V      0.502980000000     0.206460000000     0.251950000000     1.38544    
V13      V      0.132760000000     0.502070000000     0.002130000000     1.37943    
V14      V      0.207220000000     0.502340000000     0.501340000000     1.38639    
V15      V      0.132780000000     0.502460000000     0.251550000000     1.38346    
V16      V      0.207210000000     0.502470000000     0.251920000000     1.38589    
V17      V      0.835050000000     0.835710000000     0.473070000000     1.38446    
V18      V      0.836280000000     0.834520000000     0.028720000000     1.37678    
V19      V      0.835910000000     0.836000000000     0.223530000000     1.38623    
V20      V      0.835560000000     0.834290000000     0.279200000000     1.38258    
V21      V      0.836200000000     0.168810000000     0.473020000000     1.3859     
V22      V      0.835390000000     0.170040000000     0.028690000000     1.37778    
V23      V      0.835560000000     0.168870000000     0.224790000000     1.38852    
V24      V      0.836100000000     0.170100000000     0.280450000000     1.37987    
V25      V      0.169710000000     0.168940000000     0.030670000000     1.37684    
V26      V      0.170550000000     0.169810000000     0.474990000000     1.38629    
V27      V      0.170460000000     0.169460000000     0.279650000000     1.38463    
V28      V      0.169800000000     0.169760000000     0.223980000000     1.38412    
V29      V      0.169430000000     0.834620000000     0.028430000000     1.38174    
V30      V      0.170510000000     0.835490000000     0.472770000000     1.38068    
V31      V      0.169680000000     0.835110000000     0.279830000000     1.38472    
V32      V      0.170450000000     0.835510000000     0.224170000000     1.38353    
V33      V      0.502780000000     0.872640000000     0.502440000000     1.38421    
V34      V      0.502850000000     0.798180000000     0.002860000000     1.3813     
V35      V      0.502990000000     0.872670000000     0.752410000000     1.38372    
V36      V      0.502830000000     0.798210000000     0.752840000000     1.38668    
V37      V      0.872970000000     0.502180000000     0.998770000000     1.38883    
V38      V      0.798530000000     0.502330000000     0.498770000000     1.38613    
V39      V      0.872950000000     0.502430000000     0.748780000000     1.38278    
V40      V      0.798510000000     0.502220000000     0.748780000000     1.38632    
V41      V      0.502970000000     0.132110000000     0.001950000000     1.37753    
V42      V      0.502950000000     0.206550000000     0.501950000000     1.38726    
V43      V      0.502960000000     0.132020000000     0.751950000000     1.38439    
V44      V      0.502980000000     0.206460000000     0.751950000000     1.38555    
V45      V      0.132760000000     0.502070000000     0.502130000000     1.38426    
V46      V      0.207220000000     0.502340000000     0.001340000000     1.38162    
V47      V      0.132780000000     0.502460000000     0.751550000000     1.38342    
V48      V      0.207210000000     0.502470000000     0.751920000000     1.386      
V49      V      0.835050000000     0.835710000000     0.973070000000     1.38674    
V50      V      0.836280000000     0.834520000000     0.528720000000     1.38361    
V51      V      0.835910000000     0.836000000000     0.723530000000     1.38623    
V52      V      0.835560000000     0.834290000000     0.779200000000     1.38258    
V53      V      0.836200000000     0.168810000000     0.973020000000     1.38974    
V54      V      0.835390000000     0.170040000000     0.528690000000     1.38304    
V55      V      0.835560000000     0.168870000000     0.724790000000     1.38843    
V56      V      0.836100000000     0.170100000000     0.780450000000     1.37988    
V57      V      0.169710000000     0.168940000000     0.530670000000     1.38273    
V58      V      0.170550000000     0.169810000000     0.974990000000     1.3895     
V59      V      0.170460000000     0.169460000000     0.779650000000     1.38471    
V60      V      0.169800000000     0.169760000000     0.723980000000     1.38405    
V61      V      0.169430000000     0.834620000000     0.528430000000     1.38735    
V62      V      0.170510000000     0.835490000000     0.972770000000     1.38414    
V63      V      0.169680000000     0.835110000000     0.779830000000     1.38476    
V64      V      0.170450000000     0.835510000000     0.724170000000     1.38349    


