data_structure

_audit_creation_method RASPA-1.0
_audit_creation_date 2023-5-22
_audit_author_name 'Poobodin Mano'

_cell_length_a    32.4496
_cell_length_b    32.4606
_cell_length_c    32.4544
_cell_angle_alpha 90
_cell_angle_beta  90
_cell_angle_gamma 90
_cell_volume      34185.3

_symmetry_cell_setting          triclinic
_symmetry_space_group_name_Hall 'P 1'
_symmetry_space_group_name_H-M  'P 1'
_symmetry_Int_Tables_number     1

_symmetry_equiv_pos_as_xyz 'x,y,z'

loop_
_atom_site_label
_atom_site_type_symbol
_atom_site_fract_x
_atom_site_fract_y
_atom_site_fract_z
_atom_site_charge
C1       C      0.749070000000     0.337760000000     0.006250000000     0.424356   
C2       C      0.593370000000     0.339180000000     0.003630000000     0.424452   
C3       C      0.671890000000     0.416570000000     0.003050000000     0.423557   
C4       C      0.670390000000     0.260890000000     0.006850000000     0.424104   
C5       C      0.259280000000     0.334280000000     0.999960000000     0.426842   
C6       C      0.414980000000     0.336610000000     0.001480000000     0.424478   
C7       C      0.336130000000     0.413360000000     0.001650000000     0.423977   
C8       C      0.338210000000     0.257690000000     0.999610000000     0.427214   
C9       C      0.669440000000     0.750810000000     0.003460000000     0.42447    
C10      C      0.670240000000     0.595100000000     0.001540000000     0.423479   
C11      C      0.591710000000     0.672630000000     0.000890000000     0.423872   
C12      C      0.747430000000     0.673650000000     0.003890000000     0.424747   
C13      C      0.257420000000     0.668170000000     0.001330000000     0.424417   
C14      C      0.413130000000     0.671070000000     0.999830000000     0.425923   
C15      C      0.336370000000     0.591820000000     0.001550000000     0.423694   
C16      C      0.333700000000     0.747510000000     0.999460000000     0.426257   
C17      C      0.743130000000     0.006730000000     0.677890000000     0.421149   
C18      C      0.587410000000     0.006930000000     0.673110000000     0.421358   
C19      C      0.667610000000     0.005740000000     0.597670000000     0.421094   
C20      C      0.663030000000     0.008190000000     0.753370000000     0.421657   
C21      C      0.253320000000     0.000400000000     0.662490000000     0.416282   
C22      C      0.409030000000     0.004360000000     0.665630000000     0.421261   
C23      C      0.332680000000     0.001800000000     0.586030000000     0.42145    
C24      C      0.329960000000     0.002810000000     0.741740000000     0.421983   
C25      C      0.340740000000     0.003210000000     0.251910000000     0.421918   
C26      C      0.338020000000     0.001710000000     0.407610000000     0.421349   
C27      C      0.417510000000     0.003190000000     0.331280000000     0.42133    
C28      C      0.261750000000     0.001660000000     0.328410000000     0.421299   
C29      C      0.751700000000     0.002750000000     0.343330000000     0.422415   
C30      C      0.595970000000     0.003530000000     0.338730000000     0.421336   
C31      C      0.671750000000     0.004000000000     0.419130000000     0.421239   
C32      C      0.676220000000     0.002180000000     0.263410000000     0.421945   
C33      C      0.000390000000     0.670390000000     0.747750000000     0.417865   
C34      C      0.002270000000     0.668230000000     0.592050000000     0.422932   
C35      C      0.002770000000     0.591320000000     0.670970000000     0.422492   
C36      C      0.999840000000     0.746990000000     0.668800000000     0.428453   
C37      C      0.001410000000     0.257120000000     0.672380000000     0.423568   
C38      C      0.003480000000     0.412830000000     0.671480000000     0.422568   
C39      C      0.003620000000     0.334440000000     0.593870000000     0.422221   
C40      C      0.001470000000     0.335210000000     0.749580000000     0.423399   
C41      C      0.005200000000     0.667840000000     0.257940000000     0.423093   
C42      C      0.003870000000     0.667570000000     0.413620000000     0.422808   
C43      C      0.005030000000     0.589770000000     0.335650000000     0.422637   
C44      C      0.004160000000     0.745460000000     0.335920000000     0.422994   
C45      C      0.007820000000     0.333230000000     0.259630000000     0.423187   
C46      C      0.005890000000     0.333530000000     0.415360000000     0.422411   
C47      C      0.006130000000     0.411320000000     0.337170000000     0.422585   
C48      C      0.007680000000     0.255620000000     0.337420000000     0.422911   
C49      C      0.926450000000     0.334850000000     0.006630000000     0.424537   
C50      C      0.081930000000     0.333700000000     0.002310000000     0.424971   
C51      C      0.006350000000     0.333840000000     0.082290000000     0.42489    
C52      C      0.002100000000     0.334570000000     0.926860000000     0.425258   
C53      C      0.924680000000     0.672540000000     0.004240000000     0.425065   
C54      C      0.080120000000     0.668100000000     0.001970000000     0.425573   
C55      C      0.003700000000     0.669510000000     0.080670000000     0.425594   
C56      C      0.001110000000     0.670960000000     0.925140000000     0.422429   
C57      C      0.084400000000     0.999920000000     0.332790000000     0.43337    
C58      C      0.929010000000     0.001450000000     0.340240000000     0.4205     
C59      C      0.005710000000     0.922800000000     0.336440000000     0.424602   
C60      C      0.007580000000     0.078310000000     0.336620000000     0.425211   
C61      C      0.920530000000     0.003440000000     0.674590000000     0.42484    
C62      C      0.075930000000     0.000660000000     0.666400000000     0.415313   
C63      C      0.999370000000     0.079780000000     0.672040000000     0.426513   
C64      C      0.997250000000     0.924290000000     0.669030000000     0.423679   
C65      C      0.673660000000     0.004080000000     0.086070000000     0.425315   
C66      C      0.665890000000     0.007480000000     0.930700000000     0.425273   
C67      C      0.670410000000     0.928080000000     0.006850000000     0.424722   
C68      C      0.669200000000     0.083580000000     0.009650000000     0.425047   
C69      C      0.333490000000     0.002780000000     0.919120000000     0.425633   
C70      C      0.337560000000     0.002760000000     0.074620000000     0.425954   
C71      C      0.333750000000     0.924890000000     0.997080000000     0.423969   
C72      C      0.337330000000     0.080390000000     0.997050000000     0.424651   
C73      C      0.981580000000     0.145570000000     0.310280000000     0.00411196 
C74      C      0.007890000000     0.123620000000     0.336660000000    -0.109624   
C75      C      0.034350000000     0.145290000000     0.363160000000     0.00177952 
C76      C      0.034930000000     0.188370000000     0.362800000000     0.000912654
C77      C      0.008010000000     0.210300000000     0.337030000000    -0.108414   
C78      C      0.981130000000     0.188620000000     0.310990000000     0.00329812 
C79      C      0.035120000000     0.358690000000     0.192380000000     0.00126837 
C80      C      0.008110000000     0.332990000000     0.214310000000    -0.108957   
C81      C      0.980780000000     0.307450000000     0.192620000000     0.00373606 
C82      C      0.980810000000     0.307180000000     0.149570000000     0.00330518 
C83      C      0.007160000000     0.333510000000     0.127620000000    -0.109241   
C84      C      0.034140000000     0.359470000000     0.149290000000     0.000996136
C85      C      0.042710000000     0.522300000000     0.336000000000    -0.000359219
C86      C      0.005290000000     0.544110000000     0.335900000000    -0.108198   
C87      C      0.968110000000     0.521840000000     0.336210000000     0.00180497 
C88      C      0.968360000000     0.478780000000     0.336630000000     0.00190541 
C89      C      0.005790000000     0.456970000000     0.336780000000    -0.108255   
C90      C      0.042960000000     0.479250000000     0.336450000000    -0.000306317
C91      C      0.977150000000     0.812910000000     0.310730000000     0.00324569 
C92      C      0.004100000000     0.790780000000     0.336310000000    -0.108772   
C93      C      0.031420000000     0.812300000000     0.362050000000     0.00135254 
C94      C      0.031400000000     0.855340000000     0.362630000000     0.00110024 
C95      C      0.005060000000     0.877480000000     0.336440000000    -0.108978   
C96      C      0.978130000000     0.855980000000     0.310270000000     0.00359863 
C97      C      0.031560000000     0.694590000000     0.190850000000     0.000539867
C98      C      0.005360000000     0.667940000000     0.212620000000    -0.108282   
C99      C      0.978790000000     0.641720000000     0.190780000000     0.00330486 
C100     C      0.978820000000     0.641720000000     0.147730000000     0.00457256 
C101     C      0.004370000000     0.668970000000     0.125960000000    -0.109737   
C102     C      0.030540000000     0.695620000000     0.147780000000     0.00216969 
C103     C      0.041800000000     0.333960000000     0.526620000000    -0.000500543
C104     C      0.004230000000     0.334150000000     0.548200000000    -0.108102   
C105     C      0.967210000000     0.334060000000     0.525670000000     0.00179533 
C106     C      0.967740000000     0.333820000000     0.482610000000     0.00188276 
C107     C      0.005310000000     0.333680000000     0.461030000000    -0.108167   
C108     C      0.042330000000     0.333740000000     0.483560000000    -0.000414847
C109     C      0.028160000000     0.308960000000     0.816510000000     0.00153184 
C110     C      0.001090000000     0.334840000000     0.794880000000    -0.108992   
C111     C      0.974130000000     0.360540000000     0.816860000000     0.0037348  
C112     C      0.974870000000     0.360980000000     0.859950000000     0.00353157 
C113     C      0.001540000000     0.334650000000     0.881550000000    -0.109276   
C114     C      0.027880000000     0.308350000000     0.859540000000     0.00106257 
C115     C      0.972960000000     0.190320000000     0.647380000000     0.00567467 
C116     C      0.000690000000     0.211790000000     0.672680000000    -0.110357   
C117     C      0.027750000000     0.189620000000     0.698150000000     0.00339895 
C118     C      0.026690000000     0.146550000000     0.698710000000    -0.00384332 
C119     C      0.999570000000     0.125100000000     0.672730000000    -0.102348   
C120     C      0.972910000000     0.147280000000     0.646880000000    -0.00092867 
C121     C      0.965990000000     0.667680000000     0.480970000000     0.00199215 
C122     C      0.003480000000     0.667580000000     0.459270000000    -0.108314   
C123     C      0.040590000000     0.667580000000     0.481640000000    -0.00024729 
C124     C      0.040230000000     0.667740000000     0.524700000000    -0.000263961
C125     C      0.002740000000     0.667880000000     0.546400000000    -0.108334   
C126     C      0.965620000000     0.667810000000     0.524020000000     0.00193344 
C127     C      0.966120000000     0.523430000000     0.670930000000     0.00174469 
C128     C      0.003300000000     0.545660000000     0.671290000000    -0.108146   
C129     C      0.040720000000     0.523790000000     0.671770000000    -0.000417136
C130     C      0.040890000000     0.480670000000     0.671840000000    -0.000359059
C131     C      0.003660000000     0.458490000000     0.671420000000    -0.108257   
C132     C      0.966300000000     0.480430000000     0.670990000000     0.00191703 
C133     C      0.026270000000     0.814520000000     0.693790000000    -0.000593029
C134     C      0.999100000000     0.792310000000     0.668530000000    -0.104569   
C135     C      0.971400000000     0.813730000000     0.643110000000     0.00193464 
C136     C      0.971340000000     0.856840000000     0.642510000000     0.000266364
C137     C      0.997950000000     0.878990000000     0.668410000000    -0.10242    
C138     C      0.025210000000     0.857530000000     0.694250000000    -0.00189708 
C139     C      0.972880000000     0.645540000000     0.815090000000    -0.00290686 
C140     C      0.999990000000     0.671050000000     0.793080000000    -0.0977154  
C141     C      0.027150000000     0.696850000000     0.814720000000    -0.00519079 
C142     C      0.026860000000     0.697490000000     0.857790000000     0.00371211 
C143     C      0.000430000000     0.671280000000     0.879800000000    -0.110518   
C144     C      0.973610000000     0.645130000000     0.858170000000     0.00625518 
C145     C      0.819090000000     0.975320000000     0.368550000000     0.00471476 
C146     C      0.797040000000     0.002700000000     0.343330000000    -0.109409   
C147     C      0.818630000000     0.030020000000     0.317700000000     0.00159975 
C148     C      0.861640000000     0.029340000000     0.316550000000     0.00107101 
C149     C      0.883730000000     0.002320000000     0.342070000000    -0.10829    
C150     C      0.862220000000     0.975650000000     0.368460000000     0.00367131 
C151     C      0.702340000000     0.028900000000     0.196150000000     0.00114562 
C152     C      0.676780000000     0.001700000000     0.218060000000    -0.10871    
C153     C      0.650980000000     0.974670000000     0.196310000000     0.00389302 
C154     C      0.649870000000     0.975640000000     0.153270000000     0.00521826 
C155     C      0.675610000000     0.002640000000     0.131340000000    -0.110018   
C156     C      0.702300000000     0.028840000000     0.153040000000     0.00147563 
C157     C      0.528300000000     0.966320000000     0.336290000000     0.00235852 
C158     C      0.550320000000     0.003620000000     0.336810000000    -0.108706   
C159     C      0.528230000000     0.040880000000     0.335280000000    -0.000372034
C160     C      0.485160000000     0.040800000000     0.333330000000    -0.000442197
C161     C      0.463180000000     0.003460000000     0.332890000000    -0.108618   
C162     C      0.485290000000     0.966240000000     0.334350000000     0.00232556 
C163     C      0.194210000000     0.974320000000     0.303390000000     0.00228098 
C164     C      0.216390000000     0.001340000000     0.328890000000    -0.107836   
C165     C      0.194920000000     0.028070000000     0.355250000000    -0.000608056
C166     C      0.151920000000     0.027190000000     0.356750000000     0.00437224 
C167     C      0.129690000000     0.000590000000     0.330910000000    -0.115677   
C168     C      0.151080000000     0.974470000000     0.303860000000     0.00681645 
C169     C      0.366490000000     0.977090000000     0.184360000000     0.00354753 
C170     C      0.340490000000     0.003570000000     0.206590000000    -0.108834   
C171     C      0.313700000000     0.029940000000     0.185180000000     0.000242921
C172     C      0.312310000000     0.029200000000     0.142140000000     0.00235388 
C173     C      0.338710000000     0.003140000000     0.119920000000    -0.110979   
C174     C      0.366130000000     0.977410000000     0.141280000000     0.00531397 
C175     C      0.335000000000     0.038840000000     0.518310000000    -0.00050728 
C176     C      0.333950000000     0.001590000000     0.540380000000    -0.108718   
C177     C      0.334290000000     0.964270000000     0.518360000000     0.00261262 
C178     C      0.335660000000     0.964240000000     0.475290000000     0.00262467 
C179     C      0.336730000000     0.001520000000     0.453250000000    -0.108753   
C180     C      0.336390000000     0.038810000000     0.475300000000    -0.000452868
C181     C      0.304890000000     0.029550000000     0.809420000000     0.000502143
C182     C      0.330620000000     0.002920000000     0.787080000000    -0.109238   
C183     C      0.357230000000     0.976280000000     0.808380000000     0.00400391 
C184     C      0.358600000000     0.976730000000     0.851400000000     0.00456908 
C185     C      0.332380000000     0.002820000000     0.873780000000    -0.110442   
C186     C      0.305250000000     0.028980000000     0.852520000000     0.00138553 
C187     C      0.142480000000     0.025740000000     0.637110000000    -0.00367794 
C188     C      0.121220000000     0.999630000000     0.664240000000    -0.0979487  
C189     C      0.143600000000     0.973100000000     0.690060000000    -0.000205477
C190     C      0.186650000000     0.972500000000     0.688610000000    -0.000884153
C191     C      0.207960000000     0.999450000000     0.662350000000    -0.097824   
C192     C      0.185580000000     0.026170000000     0.636700000000    -0.00335967 
C193     C      0.669830000000     0.041920000000     0.486500000000    -0.000535926
C194     C      0.670670000000     0.004440000000     0.464810000000    -0.108472   
C195     C      0.670570000000     0.967360000000     0.487240000000     0.00251994 
C196     C      0.669640000000     0.967740000000     0.530310000000     0.00239524 
C197     C      0.668760000000     0.005220000000     0.552000000000    -0.108467   
C198     C      0.668870000000     0.042300000000     0.529560000000    -0.000406088
C199     C      0.477290000000     0.968380000000     0.667640000000     0.00243727 
C200     C      0.454670000000     0.005310000000     0.667280000000    -0.108653   
C201     C      0.476120000000     0.042930000000     0.668860000000    -0.000266316
C202     C      0.519190000000     0.043570000000     0.670800000000    -0.000459547
C203     C      0.541770000000     0.006590000000     0.671210000000    -0.108608   
C204     C      0.520270000000     0.969010000000     0.669590000000     0.00248444 
C205     C      0.810330000000     0.979380000000     0.703770000000     0.0035342  
C206     C      0.788520000000     0.006570000000     0.678110000000    -0.108398   
C207     C      0.810390000000     0.033210000000     0.652010000000     0.000490287
C208     C      0.853410000000     0.031930000000     0.650760000000     0.00215755 
C209     C      0.875250000000     0.005010000000     0.676620000000    -0.109976   
C210     C      0.853460000000     0.979130000000     0.703560000000     0.00468174 
C211     C      0.688630000000     0.035920000000     0.820240000000     0.00038678 
C212     C      0.662630000000     0.008890000000     0.798720000000    -0.108699   
C213     C      0.636940000000     0.982010000000     0.820860000000     0.00388941 
C214     C      0.637050000000     0.982390000000     0.863960000000     0.00474417 
C215     C      0.663920000000     0.008610000000     0.885430000000    -0.110233   
C216     C      0.689800000000     0.035260000000     0.863280000000     0.00223528 
C217     C      0.306890000000     0.814320000000     0.972180000000     0.00111878 
C218     C      0.333270000000     0.792850000000     0.998940000000    -0.105332   
C219     C      0.359380000000     0.815050000000     0.025310000000     3.56287e-05
C220     C      0.359780000000     0.858080000000     0.024310000000    -0.000374496
C221     C      0.333030000000     0.879570000000     0.997970000000    -0.104074   
C222     C      0.306240000000     0.857430000000     0.972230000000     0.00036701 
C223     C      0.190220000000     0.641540000000     0.975010000000     0.00229544 
C224     C      0.212100000000     0.667480000000     0.001860000000    -0.107688   
C225     C      0.190350000000     0.693030000000     0.029120000000     0.000655378
C226     C      0.147310000000     0.693380000000     0.028840000000     0.0018787  
C227     C      0.125410000000     0.667170000000     0.002310000000    -0.108403   
C228     C      0.147120000000     0.640860000000     0.975730000000     0.00238405 
C229     C      0.524200000000     0.672630000000     0.962850000000     0.00173827 
C230     C      0.546020000000     0.672380000000     0.000300000000    -0.107829   
C231     C      0.523710000000     0.671850000000     0.037430000000     0.000470221
C232     C      0.480690000000     0.671500000000     0.037160000000    -0.002797   
C233     C      0.458820000000     0.671670000000     0.999770000000    -0.10397    
C234     C      0.481070000000     0.672280000000     0.962590000000    -0.00161099 
C235     C      0.644430000000     0.817550000000     0.031970000000     0.00143916 
C236     C      0.669750000000     0.796120000000     0.004230000000    -0.107669   
C237     C      0.695570000000     0.818290000000     0.977520000000     0.00268603 
C238     C      0.696500000000     0.861340000000     0.978980000000     0.00224996 
C239     C      0.670580000000     0.882770000000     0.006160000000    -0.107269   
C240     C      0.644320000000     0.860600000000     0.032420000000     0.00138644 
C241     C      0.814750000000     0.700030000000     0.977970000000     0.00291535 
C242     C      0.792730000000     0.674070000000     0.004670000000    -0.107756   
C243     C      0.814320000000     0.648170000000     0.031730000000     0.00149383 
C244     C      0.857380000000     0.647450000000     0.031330000000     0.00158833 
C245     C      0.879400000000     0.673680000000     0.004910000000    -0.107514   
C246     C      0.857820000000     0.700360000000     0.978610000000     0.00233952 
C247     C      0.336710000000     0.481070000000     0.964650000000     0.00077158 
C248     C      0.336080000000     0.459020000000     0.001930000000    -0.107185   
C249     C      0.335670000000     0.481060000000     0.039230000000    -0.000326595
C250     C      0.335850000000     0.524160000000     0.039200000000    -0.000372318
C251     C      0.336480000000     0.546160000000     0.001870000000    -0.107058   
C252     C      0.336910000000     0.524070000000     0.964620000000     0.000643357
C253     C      0.191710000000     0.359170000000     0.973000000000     0.000257465
C254     C      0.213960000000     0.333530000000     0.999790000000    -0.104837   
C255     C      0.192570000000     0.307630000000     0.027050000000    -0.000747123
C256     C      0.149510000000     0.307040000000     0.027210000000     0.00173601 
C257     C      0.127250000000     0.333390000000     0.001140000000    -0.108582   
C258     C      0.148630000000     0.359630000000     0.974190000000     0.00317748 
C259     C      0.363740000000     0.190840000000     0.971360000000     0.00168315 
C260     C      0.338410000000     0.212370000000     0.999070000000    -0.105627   
C261     C      0.313100000000     0.190260000000     0.026270000000     0.000265321
C262     C      0.312450000000     0.147250000000     0.025210000000    -0.000448634
C263     C      0.338170000000     0.125690000000     0.997920000000    -0.104595   
C264     C      0.364160000000     0.147740000000     0.971300000000     0.000538841
C265     C      0.672110000000     0.483960000000     0.964770000000     0.000754323
C266     C      0.671780000000     0.462240000000     0.002280000000    -0.106973   
C267     C      0.671040000000     0.484650000000     0.039340000000    -0.000556555
C268     C      0.670550000000     0.527640000000     0.038960000000    -0.00047586 
C269     C      0.670790000000     0.549420000000     0.001520000000    -0.106886   
C270     C      0.671630000000     0.527080000000     0.964390000000     0.000546286
C271     C      0.525230000000     0.338830000000     0.040030000000    -0.000277315
C272     C      0.547730000000     0.338890000000     0.002990000000    -0.107359   
C273     C      0.526150000000     0.338320000000     0.965440000000     0.00091557 
C274     C      0.483090000000     0.337630000000     0.964940000000     0.000979515
C275     C      0.460610000000     0.337450000000     0.001980000000    -0.107495   
C276     C      0.482200000000     0.338100000000     0.039530000000    -0.000172627
C277     C      0.816560000000     0.362010000000     0.034060000000     0.00141822 
C278     C      0.794390000000     0.336710000000     0.006880000000    -0.107915   
C279     C      0.815860000000     0.310520000000     0.979960000000     0.00267276 
C280     C      0.858900000000     0.309280000000     0.980570000000     0.00183675 
C281     C      0.881110000000     0.335230000000     0.007080000000    -0.107396   
C282     C      0.859660000000     0.361810000000     0.033640000000     0.000683956
C283     C      0.644190000000     0.194400000000     0.035380000000     0.00131349 
C284     C      0.669960000000     0.215580000000     0.007810000000    -0.107495   
C285     C      0.695230000000     0.193130000000     0.980850000000     0.00229726 
C286     C      0.695320000000     0.150120000000     0.981950000000     0.00266155 
C287     C      0.669100000000     0.128900000000     0.009030000000    -0.107782   
C288     C      0.643230000000     0.151290000000     0.035480000000     0.00109252 
H1       H      0.960810000000     0.129410000000     0.289730000000     0.0340747  
H2       H      0.055000000000     0.128880000000     0.383630000000     0.0338791  
H3       H      0.055800000000     0.204540000000     0.383240000000     0.0348588  
H4       H      0.960220000000     0.204990000000     0.290740000000     0.034301   
H5       H      0.056310000000     0.378780000000     0.208570000000     0.0351846  
H6       H      0.959770000000     0.287300000000     0.208980000000     0.0344267  
H7       H      0.959650000000     0.287010000000     0.133430000000     0.0357681  
H8       H      0.054850000000     0.379890000000     0.132900000000     0.0357672  
H9       H      0.071930000000     0.538420000000     0.335790000000     0.0387342  
H10      H      0.938710000000     0.537620000000     0.336130000000     0.0383711  
H11      H      0.939150000000     0.462640000000     0.336850000000     0.0384464  
H12      H      0.072380000000     0.463490000000     0.336520000000     0.0386157  
H13      H      0.955970000000     0.796890000000     0.290510000000     0.0361635  
H14      H      0.052380000000     0.795800000000     0.382140000000     0.0358597  
H15      H      0.052510000000     0.871330000000     0.382960000000     0.0364189  
H16      H      0.957410000000     0.872500000000     0.289960000000     0.0367043  
H17      H      0.052140000000     0.715210000000     0.207160000000     0.035383   
H18      H      0.958410000000     0.620840000000     0.207020000000     0.0354697  
H19      H      0.958320000000     0.621010000000     0.131440000000     0.0344657  
H20      H      0.050630000000     0.716750000000     0.131510000000     0.0341247  
H21      H      0.070900000000     0.334010000000     0.542950000000     0.0385768  
H22      H      0.937690000000     0.334180000000     0.541250000000     0.0383834  
H23      H      0.938630000000     0.333780000000     0.466280000000     0.0385423  
H24      H      0.071850000000     0.333620000000     0.467970000000     0.0384272  
H25      H      0.049100000000     0.288780000000     0.800110000000     0.0345538  
H26      H      0.953130000000     0.380860000000     0.800700000000     0.0351488  
H27      H      0.954190000000     0.381390000000     0.876390000000     0.0359085  
H28      H      0.048810000000     0.287920000000     0.875640000000     0.035734   
H29      H      0.951930000000     0.206840000000     0.627400000000     0.0347715  
H30      H      0.049250000000     0.205630000000     0.718050000000     0.0338509  
H31      H      0.047630000000     0.129990000000     0.718760000000     0.0358533  
H32      H      0.951640000000     0.131300000000     0.626700000000     0.0355382  
H33      H      0.936820000000     0.667680000000     0.464760000000     0.0385873  
H34      H      0.070040000000     0.667510000000     0.465930000000     0.0386128  
H35      H      0.069400000000     0.667780000000     0.540920000000     0.0387096  
H36      H      0.936170000000     0.667920000000     0.539710000000     0.0384802  
H37      H      0.936710000000     0.539190000000     0.670560000000     0.0384753  
H38      H      0.069930000000     0.539920000000     0.672050000000     0.0385839  
H39      H      0.070230000000     0.464760000000     0.672190000000     0.0385267  
H40      H      0.937010000000     0.464430000000     0.670690000000     0.038491   
H41      H      0.047790000000     0.798580000000     0.713740000000     0.0347411  
H42      H      0.950310000000     0.797130000000     0.623260000000     0.0356771  
H43      H      0.949970000000     0.872850000000     0.622470000000     0.0363401  
H44      H      0.046130000000     0.874060000000     0.714350000000     0.0350547  
H45      H      0.951810000000     0.625270000000     0.798970000000     0.0368596  
H46      H      0.048210000000     0.716890000000     0.798300000000     0.0359572  
H47      H      0.047910000000     0.717800000000     0.873890000000     0.0348681  
H48      H      0.952850000000     0.624780000000     0.874600000000     0.0352085  
H49      H      0.802980000000     0.954100000000     0.388660000000     0.0353239  
H50      H      0.802200000000     0.051270000000     0.297860000000     0.0345203  
H51      H      0.877690000000     0.050230000000     0.296030000000     0.0345792  
H52      H      0.878740000000     0.954410000000     0.388230000000     0.0356845  
H53      H      0.722560000000     0.049920000000     0.212390000000     0.0343479  
H54      H      0.630880000000     0.953590000000     0.212620000000     0.035171   
H55      H      0.629140000000     0.955090000000     0.137070000000     0.0343005  
H56      H      0.722250000000     0.050020000000     0.136680000000     0.0347643  
H57      H      0.544250000000     0.937020000000     0.337380000000     0.0381823  
H58      H      0.544170000000     0.070190000000     0.335580000000     0.0386992  
H59      H      0.469150000000     0.070050000000     0.332270000000     0.0386821  
H60      H      0.469430000000     0.936880000000     0.334070000000     0.0382116  
H61      H      0.210220000000     0.953560000000     0.282730000000     0.0360186  
H62      H      0.211440000000     0.049040000000     0.375300000000     0.0357911  
H63      H      0.135990000000     0.047700000000     0.377740000000     0.0335973  
H64      H      0.134460000000     0.953600000000     0.283800000000     0.034358   
H65      H      0.387440000000     0.956570000000     0.200320000000     0.0351145  
H66      H      0.293230000000     0.050440000000     0.201770000000     0.035415   
H67      H      0.291060000000     0.049420000000     0.126190000000     0.033701   
H68      H      0.386650000000     0.956980000000     0.124670000000     0.0337765  
H69      H      0.334790000000     0.068180000000     0.534220000000     0.0384303  
H70      H      0.333520000000     0.935000000000     0.534360000000     0.038596   
H71      H      0.335870000000     0.934940000000     0.459310000000     0.0385233  
H72      H      0.337150000000     0.068120000000     0.459390000000     0.0384724  
H73      H      0.284060000000     0.050260000000     0.793560000000     0.0353755  
H74      H      0.377480000000     0.955620000000     0.791720000000     0.0358371  
H75      H      0.379660000000     0.956210000000     0.867210000000     0.0361335  
H76      H      0.284890000000     0.049490000000     0.869240000000     0.0354863  
H77      H      0.125780000000     0.046570000000     0.617060000000     0.0357653  
H78      H      0.127760000000     0.952610000000     0.711120000000     0.0351834  
H79      H      0.203320000000     0.951780000000     0.708790000000     0.036456   
H80      H      0.201450000000     0.047140000000     0.616120000000     0.0361135  
H81      H      0.669890000000     0.071070000000     0.470270000000     0.0386289  
H82      H      0.671240000000     0.937910000000     0.471570000000     0.0384473  
H83      H      0.669570000000     0.938600000000     0.546560000000     0.0384768  
H84      H      0.668210000000     0.071760000000     0.545210000000     0.0385871  
H85      H      0.461850000000     0.938820000000     0.666490000000     0.038385   
H86      H      0.459680000000     0.071970000000     0.668660000000     0.0386707  
H87      H      0.534750000000     0.073060000000     0.671980000000     0.038666   
H88      H      0.536590000000     0.939910000000     0.669820000000     0.0384793  
H89      H      0.794020000000     0.958660000000     0.724250000000     0.036003   
H90      H      0.794180000000     0.054290000000     0.631820000000     0.035709   
H91      H      0.869660000000     0.052250000000     0.629830000000     0.0344921  
H92      H      0.869760000000     0.958010000000     0.723630000000     0.0356165  
H93      H      0.708840000000     0.056760000000     0.803750000000     0.0357065  
H94      H      0.616550000000     0.961000000000     0.804810000000     0.0355919  
H95      H      0.616990000000     0.961450000000     0.880500000000     0.0353524  
H96      H      0.710680000000     0.055810000000     0.879300000000     0.0342399  
H97      H      0.286360000000     0.797750000000     0.951720000000     0.0355912  
H98      H      0.380070000000     0.799090000000     0.046100000000     0.0353314  
H99      H      0.380600000000     0.874600000000     0.044520000000     0.0348318  
H100     H      0.285500000000     0.873460000000     0.951560000000     0.0357566  
H101     H      0.206460000000     0.621450000000     0.953860000000     0.0355681  
H102     H      0.206640000000     0.713370000000     0.049990000000     0.0358468  
H103     H      0.131110000000     0.713820000000     0.049690000000     0.034702   
H104     H      0.130760000000     0.620540000000     0.954900000000     0.0353005  
H105     H      0.540400000000     0.673050000000     0.933670000000     0.0383266  
H106     H      0.539430000000     0.671670000000     0.066870000000     0.0382201  
H107     H      0.464630000000     0.671050000000     0.066410000000     0.0389758  
H108     H      0.465230000000     0.672420000000     0.933220000000     0.0389905  
H109     H      0.624220000000     0.801020000000     0.052780000000     0.0351226  
H110     H      0.715510000000     0.802290000000     0.956050000000     0.0348324  
H111     H      0.716850000000     0.877900000000     0.958330000000     0.0360355  
H112     H      0.624170000000     0.876570000000     0.053720000000     0.0347996  
H113     H      0.798620000000     0.720370000000     0.956980000000     0.0347423  
H114     H      0.797870000000     0.627800000000     0.052450000000     0.0350534  
H115     H      0.873500000000     0.626720000000     0.051950000000     0.0347652  
H116     H      0.874280000000     0.720700000000     0.957870000000     0.0359594  
H117     H      0.337070000000     0.465150000000     0.935310000000     0.0385561  
H118     H      0.335210000000     0.465070000000     0.068510000000     0.0387122  
H119     H      0.335480000000     0.540190000000     0.068470000000     0.0387391  
H120     H      0.337360000000     0.539950000000     0.935270000000     0.0385634  
H121     H      0.207650000000     0.379520000000     0.951880000000     0.0356214  
H122     H      0.209190000000     0.287510000000     0.047880000000     0.034849   
H123     H      0.133600000000     0.286670000000     0.048340000000     0.035295   
H124     H      0.132000000000     0.380080000000     0.953700000000     0.0355967  
H125     H      0.383630000000     0.207350000000     0.950230000000     0.0356321  
H126     H      0.293210000000     0.206290000000     0.047780000000     0.0345936  
H127     H      0.292280000000     0.130780000000     0.046110000000     0.0346401  
H128     H      0.384100000000     0.131660000000     0.949900000000     0.0359742  
H129     H      0.672670000000     0.467690000000     0.935640000000     0.0385994  
H130     H      0.670760000000     0.469020000000     0.068830000000     0.0385818  
H131     H      0.669950000000     0.543750000000     0.068180000000     0.038628   
H132     H      0.671860000000     0.542860000000     0.934990000000     0.0385662  
H133     H      0.540820000000     0.339230000000     0.069530000000     0.038673   
H134     H      0.542480000000     0.338350000000     0.936330000000     0.0387357  
H135     H      0.467480000000     0.337160000000     0.935440000000     0.0385606  
H136     H      0.465900000000     0.338020000000     0.068650000000     0.0387771  
H137     H      0.800570000000     0.382550000000     0.054960000000     0.035087   
H138     H      0.799310000000     0.290620000000     0.958870000000     0.0347025  
H139     H      0.874860000000     0.288680000000     0.959700000000     0.0362365  
H140     H      0.876240000000     0.381990000000     0.054440000000     0.0359073  
H141     H      0.624310000000     0.211180000000     0.056290000000     0.0354423  
H142     H      0.715430000000     0.208880000000     0.959420000000     0.0346823  
H143     H      0.715410000000     0.133400000000     0.961170000000     0.0347177  
H144     H      0.622890000000     0.135470000000     0.056700000000     0.0355056  
O1       O      0.730350000000     0.336900000000     0.971460000000    -0.542126   
O2       O      0.613400000000     0.338260000000     0.969520000000    -0.541986   
O3       O      0.672450000000     0.396330000000     0.969050000000    -0.540609   
O4       O      0.671580000000     0.279340000000     0.971910000000    -0.541614   
O5       O      0.669750000000     0.281030000000     0.040870000000    -0.541663   
O6       O      0.671160000000     0.397900000000     0.037910000000    -0.544635   
O7       O      0.612220000000     0.340000000000     0.038380000000    -0.544454   
O8       O      0.729180000000     0.339210000000     0.040410000000    -0.541732   
O9       O      0.278260000000     0.333810000000     0.034620000000    -0.544761   
O10      O      0.395140000000     0.335800000000     0.035700000000    -0.543629   
O11      O      0.335860000000     0.393500000000     0.035880000000    -0.541986   
O12      O      0.337240000000     0.276500000000     0.034360000000    -0.544016   
O13      O      0.338580000000     0.277460000000     0.965380000000    -0.542739   
O14      O      0.336720000000     0.394320000000     0.967000000000    -0.544151   
O15      O      0.395930000000     0.336770000000     0.966820000000    -0.543111   
O16      O      0.278910000000     0.335410000000     0.965640000000    -0.542019   
O17      O      0.670380000000     0.732020000000     0.968690000000    -0.540278   
O18      O      0.670770000000     0.614900000000     0.967270000000    -0.539278   
O19      O      0.611800000000     0.673200000000     0.966800000000    -0.540394   
O20      O      0.728820000000     0.674190000000     0.969040000000    -0.541265   
O21      O      0.727460000000     0.672650000000     0.038010000000    -0.54263    
O22      O      0.610540000000     0.672240000000     0.035670000000    -0.545143   
O23      O      0.669320000000     0.614220000000     0.036140000000    -0.545893   
O24      O      0.668420000000     0.731000000000     0.037650000000    -0.54347    
O25      O      0.276350000000     0.666790000000     0.966670000000    -0.541468   
O26      O      0.393370000000     0.671280000000     0.965530000000    -0.541454   
O27      O      0.336820000000     0.610850000000     0.966890000000    -0.543317   
O28      O      0.332380000000     0.727690000000     0.965260000000    -0.541435   
O29      O      0.335820000000     0.728700000000     0.034160000000    -0.543941   
O30      O      0.335510000000     0.611700000000     0.035760000000    -0.542114   
O31      O      0.393960000000     0.670220000000     0.034400000000    -0.546191   
O32      O      0.277080000000     0.670480000000     0.035560000000    -0.542678   
O33      O      0.723670000000     0.972340000000     0.679280000000    -0.538868   
O34      O      0.606900000000     0.972530000000     0.673390000000    -0.542329   
O35      O      0.667990000000     0.971610000000     0.617710000000    -0.539036   
O36      O      0.662170000000     0.973410000000     0.734630000000    -0.539543   
O37      O      0.665040000000     0.042310000000     0.733490000000    -0.540725   
O38      O      0.666140000000     0.040450000000     0.616560000000    -0.542734   
O39      O      0.606840000000     0.041400000000     0.674210000000    -0.540254   
O40      O      0.723950000000     0.041210000000     0.675390000000    -0.540883   
O41      O      0.271780000000     0.035320000000     0.661250000000    -0.540476   
O42      O      0.388690000000     0.038300000000     0.665870000000    -0.54075    
O43      O      0.332360000000     0.036370000000     0.605250000000    -0.542639   
O44      O      0.327850000000     0.037120000000     0.722190000000    -0.539849   
O45      O      0.332360000000     0.968300000000     0.722660000000    -0.541082   
O46      O      0.332110000000     0.967490000000     0.605720000000    -0.540238   
O47      O      0.390460000000     0.969460000000     0.664350000000    -0.541336   
O48      O      0.273490000000     0.966450000000     0.664490000000    -0.537931   
O49      O      0.338800000000     0.037460000000     0.271570000000    -0.541364   
O50      O      0.339110000000     0.036300000000     0.388480000000    -0.543759   
O51      O      0.397720000000     0.037440000000     0.330150000000    -0.541428   
O52      O      0.280710000000     0.036280000000     0.330400000000    -0.542349   
O53      O      0.281420000000     0.967390000000     0.326950000000    -0.537993   
O54      O      0.398360000000     0.968590000000     0.331430000000    -0.541042   
O55      O      0.337820000000     0.967430000000     0.387810000000    -0.53891    
O56      O      0.342240000000     0.968570000000     0.270860000000    -0.539717   
O57      O      0.732580000000     0.037300000000     0.342110000000    -0.542456   
O58      O      0.615630000000     0.037870000000     0.338910000000    -0.541302   
O59      O      0.672470000000     0.038210000000     0.399240000000    -0.541258   
O60      O      0.676180000000     0.036900000000     0.282260000000    -0.541329   
O61      O      0.675070000000     0.967940000000     0.283150000000    -0.538753   
O62      O      0.672040000000     0.969340000000     0.400110000000    -0.540941   
O63      O      0.615240000000     0.969010000000     0.339960000000    -0.541085   
O64      O      0.732210000000     0.968340000000     0.343590000000    -0.538601   
O65      O      0.966140000000     0.669080000000     0.728020000000    -0.538834   
O66      O      0.967600000000     0.667780000000     0.611060000000    -0.542704   
O67      O      0.968010000000     0.610170000000     0.670250000000    -0.543025   
O68      O      0.965710000000     0.727040000000     0.668370000000    -0.542695   
O69      O      0.034690000000     0.728360000000     0.669870000000    -0.544649   
O70      O      0.036890000000     0.611380000000     0.671250000000    -0.541283   
O71      O      0.036480000000     0.669130000000     0.611930000000    -0.54232    
O72      O      0.035110000000     0.671050000000     0.728870000000    -0.541208   
O73      O      0.967210000000     0.276940000000     0.671360000000    -0.541047   
O74      O      0.968840000000     0.393770000000     0.670970000000    -0.543431   
O75      O      0.968890000000     0.335070000000     0.612820000000    -0.54193    
O76      O      0.967220000000     0.335980000000     0.729820000000    -0.539901   
O77      O      0.036210000000     0.334390000000     0.730760000000    -0.542784   
O78      O      0.037780000000     0.334060000000     0.613850000000    -0.542162   
O79      O      0.037720000000     0.392970000000     0.672090000000    -0.540668   
O80      O      0.036190000000     0.275900000000     0.672990000000    -0.541631   
O81      O      0.039520000000     0.669400000000     0.277540000000    -0.54092    
O82      O      0.038490000000     0.666840000000     0.394510000000    -0.543294   
O83      O      0.039340000000     0.609470000000     0.334970000000    -0.542539   
O84      O      0.038710000000     0.726350000000     0.337510000000    -0.542866   
O85      O      0.969790000000     0.725950000000     0.334140000000    -0.539387   
O86      O      0.970460000000     0.608980000000     0.336270000000    -0.541912   
O87      O      0.969610000000     0.668340000000     0.393820000000    -0.541287   
O88      O      0.970590000000     0.666210000000     0.276930000000    -0.54165    
O89      O      0.973120000000     0.332600000000     0.278510000000    -0.541996   
O90      O      0.971710000000     0.333070000000     0.395420000000    -0.541428   
O91      O      0.971880000000     0.391500000000     0.336780000000    -0.541057   
O92      O      0.972990000000     0.274550000000     0.336690000000    -0.541311   
O93      O      0.041980000000     0.275280000000     0.338260000000    -0.541003   
O94      O      0.040770000000     0.392230000000     0.337770000000    -0.543094   
O95      O      0.040600000000     0.333910000000     0.396380000000    -0.542626   
O96      O      0.042110000000     0.333980000000     0.279350000000    -0.540516   
O97      O      0.945450000000     0.300310000000     0.003640000000    -0.540813   
O98      O      0.062440000000     0.299420000000     0.005140000000    -0.542222   
O99      O      0.003200000000     0.299570000000     0.062860000000    -0.543677   
O100     O      0.004710000000     0.300090000000     0.945980000000    -0.54259    
O101     O      0.000500000000     0.368940000000     0.946330000000    -0.540864   
O102     O      0.008410000000     0.368360000000     0.063110000000    -0.541217   
O103     O      0.062810000000     0.368260000000     0.000720000000    -0.541554   
O104     O      0.946070000000     0.369100000000     0.008650000000    -0.539812   
O105     O      0.942920000000     0.637500000000     0.004890000000    -0.541356   
O106     O      0.059820000000     0.634170000000     0.000450000000    -0.540273   
O107     O      0.002960000000     0.635210000000     0.061040000000    -0.54255    
O108     O      0.999000000000     0.636390000000     0.944180000000    -0.537291   
O109     O      0.003940000000     0.705200000000     0.944710000000    -0.540947   
O110     O      0.003700000000     0.704210000000     0.061720000000    -0.542267   
O111     O      0.061850000000     0.703060000000     0.003700000000    -0.544746   
O112     O      0.945000000000     0.706440000000     0.002840000000    -0.539938   
O113     O      0.066790000000     0.001240000000     0.368140000000    -0.546512   
O114     O      0.949930000000     0.999820000000     0.373780000000    -0.533126   
O115     O      0.009110000000     0.942040000000     0.370810000000    -0.540015   
O116     O      0.008360000000     0.058980000000     0.371090000000    -0.542181   
O117     O      0.006320000000     0.059070000000     0.302110000000    -0.542449   
O118     O      0.002920000000     0.942170000000     0.302090000000    -0.540108   
O119     O      0.946640000000     0.002570000000     0.304900000000    -0.540715   
O120     O      0.063440000000     0.998720000000     0.299260000000    -0.539121   
O121     O      0.941610000000     0.001880000000     0.708040000000    -0.537687   
O122     O      0.058500000000     0.999960000000     0.701850000000    -0.535561   
O123     O      0.001380000000     0.059750000000     0.706090000000    -0.541214   
O124     O      0.999570000000     0.942860000000     0.703810000000    -0.53796    
O125     O      0.995160000000     0.944290000000     0.634960000000    -0.5379     
O126     O      0.996910000000     0.061240000000     0.637240000000    -0.543502   
O127     O      0.054820000000     0.002230000000     0.632980000000    -0.541571   
O128     O      0.938000000000     0.004090000000     0.639160000000    -0.54465    
O129     O      0.638250000000     0.003890000000     0.068530000000    -0.543892   
O130     O      0.632390000000     0.006250000000     0.951710000000    -0.540349   
O131     O      0.635810000000     0.947000000000     0.009360000000    -0.541167   
O132     O      0.634890000000     0.063960000000     0.011590000000    -0.539979   
O133     O      0.703780000000     0.064620000000     0.007350000000    -0.54402    
O134     O      0.704700000000     0.947730000000     0.005070000000    -0.538694   
O135     O      0.701310000000     0.007750000000     0.948230000000    -0.542938   
O136     O      0.707170000000     0.005350000000     0.065070000000    -0.540804   
O137     O      0.368400000000     0.000450000000     0.937540000000    -0.543436   
O138     O      0.371570000000     0.002500000000     0.054450000000    -0.544275   
O139     O      0.368670000000     0.943380000000     0.997390000000    -0.540819   
O140     O      0.371320000000     0.060280000000     0.994710000000    -0.540009   
O141     O      0.302460000000     0.061930000000     0.999110000000    -0.542822   
O142     O      0.299680000000     0.945000000000     0.996510000000    -0.537473   
O143     O      0.302560000000     0.002860000000     0.056220000000    -0.544012   
O144     O      0.299560000000     0.004960000000     0.939300000000    -0.542976   
V1       V      0.671970000000     0.337690000000     0.967710000000     1.38524    
V2       V      0.670580000000     0.339600000000     0.042150000000     1.38566    
V3       V      0.336620000000     0.334900000000     0.037910000000     1.38535    
V4       V      0.337510000000     0.335990000000     0.963440000000     1.38782    
V5       V      0.670440000000     0.673570000000     0.965160000000     1.37975    
V6       V      0.668900000000     0.672520000000     0.039610000000     1.39088    
V7       V      0.334750000000     0.669160000000     0.963300000000     1.38391    
V8       V      0.335600000000     0.670290000000     0.037740000000     1.38616    
V9       V      0.665200000000     0.969700000000     0.676280000000     1.38773    
V10      V      0.665460000000     0.044120000000     0.674920000000     1.37876    
V11      V      0.330100000000     0.039560000000     0.663630000000     1.37831    
V12      V      0.332110000000     0.965150000000     0.664270000000     1.38852    
V13      V      0.339110000000     0.039640000000     0.330120000000     1.3827     
V14      V      0.339980000000     0.965210000000     0.329250000000     1.38494    
V15      V      0.674190000000     0.040340000000     0.340660000000     1.38011    
V16      V      0.673660000000     0.965890000000     0.341720000000     1.38696    
V17      V      0.964100000000     0.668490000000     0.669430000000     1.38921    
V18      V      0.038560000000     0.669990000000     0.670480000000     1.38124    
V19      V      0.965280000000     0.335450000000     0.671230000000     1.38996    
V20      V      0.039750000000     0.334330000000     0.672410000000     1.38012    
V21      V      0.041800000000     0.667990000000     0.336110000000     1.38281    
V22      V      0.967330000000     0.667390000000     0.335290000000     1.38814    
V23      V      0.969660000000     0.332940000000     0.336870000000     1.38949    
V24      V      0.044140000000     0.333840000000     0.337950000000     1.38043    
V25      V      0.003920000000     0.297030000000     0.004410000000     1.38432    
V26      V      0.004470000000     0.371490000000     0.004730000000     1.37765    
V27      V      0.001160000000     0.633030000000     0.002590000000     1.37773    
V28      V      0.003630000000     0.707520000000     0.003250000000     1.38509    
V29      V      0.008620000000     0.000500000000     0.373750000000     1.37615    
V30      V      0.004770000000     0.000620000000     0.299300000000     1.37806    
V31      V      0.000330000000     0.001120000000     0.707720000000     1.36889    
V32      V      0.996130000000     0.002940000000     0.633310000000     1.38866    
V33      V      0.632560000000     0.005330000000     0.010390000000     1.37918    
V34      V      0.707020000000     0.006320000000     0.006380000000     1.38306    
V35      V      0.372780000000     0.001640000000     0.995920000000     1.38346    
V36      V      0.298270000000     0.003670000000     0.997840000000     1.3839     


