data_structure

_audit_creation_method RASPA-1.0
_audit_creation_date 2023-5-22
_audit_author_name 'Poobodin Mano'

_cell_length_a    30.3256
_cell_length_b    30.333
_cell_length_c    45.3938
_cell_angle_alpha 90.0001
_cell_angle_beta  90
_cell_angle_gamma 120
_cell_volume      36162

_symmetry_cell_setting          triclinic
_symmetry_space_group_name_Hall 'P 1'
_symmetry_space_group_name_H-M  'P 1'
_symmetry_Int_Tables_number     1

_symmetry_equiv_pos_as_xyz 'x,y,z'

loop_
_atom_site_label
_atom_site_type_symbol
_atom_site_fract_x
_atom_site_fract_y
_atom_site_fract_z
_atom_site_charge
C1       C      0.987750000000     0.991880000000     0.272160000000     0.43349    
C2       C      0.987780000000     0.991870000000     0.383520000000     0.433512   
C3       C      0.903660000000     0.909260000000     0.327830000000     0.434321   
C4       C      0.071880000000     0.074500000000     0.327820000000     0.434232   
C5       C      0.987590000000     0.491680000000     0.271380000000     0.435316   
C6       C      0.987610000000     0.491630000000     0.382640000000     0.434615   
C7       C      0.903250000000     0.409290000000     0.326990000000     0.434493   
C8       C      0.071960000000     0.574020000000     0.327000000000     0.434247   
C9       C      0.487590000000     0.991650000000     0.268700000000     0.435327   
C10      C      0.487630000000     0.991640000000     0.379890000000     0.435371   
C11      C      0.570210000000     0.075760000000     0.324300000000     0.433992   
C12      C      0.405010000000     0.907540000000     0.324320000000     0.433869   
C13      C      0.487740000000     0.491930000000     0.269490000000     0.434682   
C14      C      0.487790000000     0.491830000000     0.380810000000     0.435299   
C15      C      0.570110000000     0.576250000000     0.325170000000     0.434126   
C16      C      0.405430000000     0.407520000000     0.325150000000     0.434229   
C17      C      0.905810000000     0.994930000000     0.994790000000     0.433938   
C18      C      0.069130000000     0.988180000000     0.994790000000     0.433921   
C19      C      0.987440000000     0.991500000000     0.939130000000     0.433949   
C20      C      0.987510000000     0.991620000000     0.050450000000     0.432953   
C21      C      0.070700000000     0.491580000000     0.993350000000     0.434848   
C22      C      0.904120000000     0.491830000000     0.993380000000     0.434703   
C23      C      0.987430000000     0.491710000000     0.048990000000     0.434119   
C24      C      0.987390000000     0.491700000000     0.937800000000     0.435166   
C25      C      0.572490000000     0.994900000000     0.990700000000     0.432795   
C26      C      0.402430000000     0.988160000000     0.990680000000     0.432624   
C27      C      0.487460000000     0.991500000000     0.935060000000     0.434518   
C28      C      0.487460000000     0.991560000000     0.046310000000     0.434794   
C29      C      0.403990000000     0.491600000000     0.992110000000     0.432209   
C30      C      0.570830000000     0.491820000000     0.992130000000     0.432248   
C31      C      0.487440000000     0.491790000000     0.047780000000     0.433944   
C32      C      0.487380000000     0.491630000000     0.936410000000     0.434418   
C33      C      0.987460000000     0.991500000000     0.716550000000     0.434101   
C34      C      0.987560000000     0.991610000000     0.605230000000     0.433565   
C35      C      0.987920000000     0.908390000000     0.660850000000     0.433705   
C36      C      0.987090000000     0.074700000000     0.660880000000     0.433608   
C37      C      0.987460000000     0.491560000000     0.715430000000     0.435548   
C38      C      0.987530000000     0.491530000000     0.604180000000     0.434889   
C39      C      0.986910000000     0.574610000000     0.659800000000     0.433709   
C40      C      0.988080000000     0.408470000000     0.659850000000     0.433697   
C41      C      0.487550000000     0.991420000000     0.713530000000     0.435046   
C42      C      0.487600000000     0.991460000000     0.602280000000     0.435378   
C43      C      0.487960000000     0.074990000000     0.657930000000     0.434263   
C44      C      0.487190000000     0.907880000000     0.657920000000     0.434302   
C45      C      0.487520000000     0.491420000000     0.714690000000     0.434547   
C46      C      0.487630000000     0.491480000000     0.603370000000     0.435206   
C47      C      0.486970000000     0.407780000000     0.659010000000     0.434165   
C48      C      0.488190000000     0.575110000000     0.659010000000     0.434108   
C49      C      0.531310000000     0.811740000000     0.666570000000    -0.0741335  
C50      C      0.487650000000     0.766040000000     0.658330000000     0.0250094  
C51      C      0.443720000000     0.767580000000     0.649970000000    -0.0738939  
C52      C      0.443400000000     0.813500000000     0.650050000000     0.0363208  
C53      C      0.487180000000     0.859100000000     0.658090000000    -0.134406   
C54      C      0.531170000000     0.857730000000     0.666270000000     0.0363639  
C55      C      0.487910000000     0.717040000000     0.658530000000     0.0249483  
C56      C      0.531820000000     0.715340000000     0.650360000000    -0.0737694  
C57      C      0.532120000000     0.669400000000     0.650760000000     0.0361158  
C58      C      0.488310000000     0.623950000000     0.658980000000    -0.13421    
C59      C      0.444360000000     0.625500000000     0.667020000000     0.0363041  
C60      C      0.444250000000     0.671500000000     0.666980000000    -0.0740589  
C61      C      0.530890000000     0.311380000000     0.667010000000    -0.0741157  
C62      C      0.487240000000     0.265840000000     0.658540000000     0.0250025  
C63      C      0.443340000000     0.267550000000     0.650340000000    -0.0738047  
C64      C      0.443050000000     0.313490000000     0.650740000000     0.036201   
C65      C      0.486840000000     0.358930000000     0.658980000000    -0.13421    
C66      C      0.530780000000     0.357380000000     0.667040000000     0.0363357  
C67      C      0.487500000000     0.216840000000     0.658330000000     0.0249505  
C68      C      0.531440000000     0.215310000000     0.650000000000    -0.0737849  
C69      C      0.531760000000     0.169380000000     0.650070000000     0.036203   
C70      C      0.487970000000     0.123780000000     0.658100000000    -0.134145   
C71      C      0.443970000000     0.125150000000     0.666270000000     0.0362726  
C72      C      0.443830000000     0.171130000000     0.666560000000    -0.0739781  
C73      C      0.030870000000     0.714930000000     0.651800000000    -0.0736087  
C74      C      0.987210000000     0.716830000000     0.660250000000     0.0245305  
C75      C      0.943300000000     0.671240000000     0.668430000000    -0.0737705  
C76      C      0.943000000000     0.625000000000     0.668040000000     0.0361727  
C77      C      0.986800000000     0.623340000000     0.659830000000    -0.134611   
C78      C      0.030760000000     0.668820000000     0.651780000000     0.0367006  
C79      C      0.987480000000     0.766100000000     0.660440000000     0.0245863  
C80      C      0.031410000000     0.811550000000     0.668790000000    -0.0734119  
C81      C      0.031730000000     0.857810000000     0.668720000000     0.0366125  
C82      C      0.987940000000     0.859620000000     0.660670000000    -0.13467    
C83      C      0.943960000000     0.814270000000     0.652490000000     0.0363534  
C84      C      0.943820000000     0.768150000000     0.652190000000    -0.0741031  
C85      C      0.943590000000     0.171530000000     0.668840000000    -0.0737607  
C86      C      0.987530000000     0.216990000000     0.660510000000     0.0245815  
C87      C      0.031200000000     0.214960000000     0.652280000000    -0.0735987  
C88      C      0.031070000000     0.168840000000     0.652570000000     0.0366879  
C89      C      0.987070000000     0.123480000000     0.660720000000    -0.134476   
C90      C      0.943270000000     0.125280000000     0.668750000000     0.0361742  
C91      C      0.987780000000     0.266250000000     0.660320000000     0.0245385  
C92      C      0.944140000000     0.268160000000     0.651850000000    -0.0740048  
C93      C      0.944240000000     0.314270000000     0.651820000000     0.0362844  
C94      C      0.988190000000     0.359740000000     0.659890000000    -0.134598   
C95      C      0.031980000000     0.358080000000     0.668120000000     0.0366305  
C96      C      0.031680000000     0.311850000000     0.668530000000    -0.0733284  
C97      C      0.487260000000     0.531390000000     0.857370000000    -0.0748063  
C98      C      0.487410000000     0.491500000000     0.841810000000     0.0254138  
C99      C      0.487550000000     0.451650000000     0.857420000000    -0.0748134  
C100     C      0.486890000000     0.451350000000     0.888220000000     0.037171   
C101     C      0.487390000000     0.491580000000     0.903880000000    -0.134572   
C102     C      0.487890000000     0.531760000000     0.888170000000     0.0371749  
C103     C      0.487430000000     0.491460000000     0.809290000000     0.0253754  
C104     C      0.447180000000     0.490800000000     0.793680000000    -0.0747238  
C105     C      0.446880000000     0.490140000000     0.762880000000     0.0372284  
C106     C      0.487490000000     0.491420000000     0.747220000000    -0.134505   
C107     C      0.528070000000     0.492720000000     0.762930000000     0.0372064  
C108     C      0.527710000000     0.492100000000     0.793730000000    -0.0747034  
C109     C      0.486970000000     0.031150000000     0.856100000000    -0.0743969  
C110     C      0.487490000000     0.991450000000     0.840540000000     0.0249704  
C111     C      0.487990000000     0.951770000000     0.856120000000    -0.0748735  
C112     C      0.487340000000     0.951450000000     0.886910000000     0.037624   
C113     C      0.487460000000     0.991480000000     0.902560000000    -0.135531   
C114     C      0.487600000000     0.031500000000     0.886890000000     0.0380421  
C115     C      0.487500000000     0.991430000000     0.808050000000     0.0256795  
C116     C      0.447140000000     0.990600000000     0.792470000000    -0.0751285  
C117     C      0.446840000000     0.989960000000     0.761690000000     0.0376854  
C118     C      0.487530000000     0.991420000000     0.746030000000    -0.135208   
C119     C      0.528210000000     0.992890000000     0.761710000000     0.0376432  
C120     C      0.527870000000     0.992260000000     0.792490000000    -0.0750978  
C121     C      0.763970000000     0.448510000000     0.001920000000    -0.071731   
C122     C      0.762090000000     0.491920000000     0.992880000000     0.0238994  
C123     C      0.807570000000     0.535330000000     0.984050000000    -0.0750317  
C124     C      0.853690000000     0.535420000000     0.984430000000     0.0370639  
C125     C      0.855360000000     0.491890000000     0.993260000000    -0.138274   
C126     C      0.809990000000     0.448390000000     0.001930000000     0.040074   
C127     C      0.712950000000     0.491910000000     0.992640000000     0.0184256  
C128     C      0.667290000000     0.447800000000     0.984830000000    -0.0709749  
C129     C      0.621160000000     0.447700000000     0.984820000000     0.0329279  
C130     C      0.619640000000     0.491880000000     0.992250000000    -0.129955   
C131     C      0.665200000000     0.536090000000     0.999860000000     0.0247266  
C132     C      0.711240000000     0.536020000000     0.000240000000    -0.062265   
C133     C      0.167240000000     0.448070000000     0.984040000000    -0.0750572  
C134     C      0.212730000000     0.491490000000     0.992840000000     0.0239653  
C135     C      0.210860000000     0.534920000000     0.001860000000    -0.0717946  
C136     C      0.164840000000     0.535030000000     0.001870000000     0.040195   
C137     C      0.119450000000     0.491520000000     0.993230000000    -0.138358   
C138     C      0.121120000000     0.447980000000     0.984410000000     0.0371414  
C139     C      0.261860000000     0.491500000000     0.992610000000     0.0184183  
C140     C      0.263580000000     0.447410000000     0.000230000000    -0.0622336  
C141     C      0.309620000000     0.447340000000     0.999860000000     0.0247002  
C142     C      0.355170000000     0.491540000000     0.992220000000    -0.129885   
C143     C      0.353650000000     0.535700000000     0.984770000000     0.0329437  
C144     C      0.307520000000     0.535600000000     0.984770000000    -0.0709699  
C145     C      0.031970000000     0.524130000000     0.859030000000    -0.0731425  
C146     C      0.987400000000     0.491660000000     0.843090000000     0.0251129  
C147     C      0.942820000000     0.459210000000     0.859030000000    -0.0735808  
C148     C      0.943090000000     0.458650000000     0.889810000000     0.0382508  
C149     C      0.987390000000     0.491690000000     0.905400000000    -0.136024   
C150     C      0.031690000000     0.524720000000     0.889810000000     0.0386685  
C151     C      0.987410000000     0.491630000000     0.810140000000     0.0251509  
C152     C      0.020460000000     0.535970000000     0.794190000000    -0.0732322  
C153     C      0.021040000000     0.535650000000     0.763410000000     0.038822   
C154     C      0.987440000000     0.491580000000     0.747830000000    -0.136208   
C155     C      0.953820000000     0.447540000000     0.763420000000     0.038397   
C156     C      0.954360000000     0.447270000000     0.794200000000    -0.0736276  
C157     C      0.811360000000     0.041380000000     0.985550000000    -0.0727994  
C158     C      0.765180000000     0.997850000000     0.993400000000     0.0204832  
C159     C      0.766160000000     0.953910000000     0.002290000000    -0.070538   
C160     C      0.811780000000     0.953120000000     0.002750000000     0.0395831  
C161     C      0.857790000000     0.996460000000     0.994730000000    -0.137976   
C162     C      0.857190000000     0.040770000000     0.986380000000     0.0366032  
C163     C      0.716060000000     0.997850000000     0.992110000000     0.0260736  
C164     C      0.713420000000     0.041380000000     0.999920000000    -0.0767038  
C165     C      0.666980000000     0.040770000000     0.999100000000     0.0334799  
C166     C      0.622050000000     0.996440000000     0.990760000000    -0.133999   
C167     C      0.624710000000     0.953090000000     0.982770000000     0.0361656  
C168     C      0.671130000000     0.953890000000     0.983240000000    -0.0750956  
C169     C      0.163560000000     0.941690000000     0.985560000000    -0.0732022  
C170     C      0.209750000000     0.985230000000     0.993370000000     0.0204926  
C171     C      0.208790000000     0.029190000000     0.002240000000    -0.0700328  
C172     C      0.163170000000     0.029990000000     0.002710000000     0.0399462  
C173     C      0.117150000000     0.986640000000     0.994720000000    -0.137819   
C174     C      0.117740000000     0.942310000000     0.986390000000     0.0361575  
C175     C      0.258860000000     0.985230000000     0.992080000000     0.0260563  
C176     C      0.261510000000     0.941700000000     0.999920000000    -0.077116   
C177     C      0.307940000000     0.942310000000     0.999100000000     0.0330367  
C178     C      0.352860000000     0.986620000000     0.990740000000    -0.133855   
C179     C      0.350200000000     0.029960000000     0.982720000000     0.0365411  
C180     C      0.303790000000     0.029170000000     0.983190000000    -0.0746559  
C181     C      0.942820000000     0.959110000000     0.860300000000    -0.0733965  
C182     C      0.987430000000     0.991460000000     0.844340000000     0.0245806  
C183     C      0.032040000000     0.023800000000     0.860300000000    -0.0725791  
C184     C      0.031760000000     0.024380000000     0.891090000000     0.0387876  
C185     C      0.987430000000     0.991470000000     0.906690000000    -0.135836   
C186     C      0.943100000000     0.958540000000     0.891090000000     0.0379018  
C187     C      0.987420000000     0.991470000000     0.811340000000     0.0246143  
C188     C      0.954080000000     0.947250000000     0.795380000000    -0.0734481  
C189     C      0.953530000000     0.947570000000     0.764590000000     0.0379393  
C190     C      0.987440000000     0.991480000000     0.748990000000    -0.13581    
C191     C      0.021330000000     0.035400000000     0.764600000000     0.0387529  
C192     C      0.020770000000     0.035690000000     0.795390000000    -0.0725564  
C193     C      0.443230000000     0.479800000000     0.459630000000    -0.0734914  
C194     C      0.487730000000     0.491670000000     0.475590000000     0.0254913  
C195     C      0.532260000000     0.503590000000     0.459640000000    -0.0734645  
C196     C      0.531990000000     0.502790000000     0.428840000000     0.0380358  
C197     C      0.487770000000     0.491780000000     0.413240000000    -0.13523    
C198     C      0.443540000000     0.480710000000     0.428840000000     0.0380983  
C199     C      0.487710000000     0.491620000000     0.508590000000     0.0254883  
C200     C      0.454590000000     0.502820000000     0.524550000000    -0.0735224  
C201     C      0.454010000000     0.501910000000     0.555340000000     0.0380357  
C202     C      0.487660000000     0.491520000000     0.570940000000    -0.135204   
C203     C      0.521340000000     0.481190000000     0.555330000000     0.0380402  
C204     C      0.520810000000     0.480380000000     0.524540000000    -0.0735014  
C205     C      0.447740000000     0.492030000000     0.190500000000    -0.0747817  
C206     C      0.487620000000     0.491930000000     0.174890000000     0.0255663  
C207     C      0.527550000000     0.491840000000     0.190460000000    -0.0747956  
C208     C      0.527270000000     0.491200000000     0.221260000000     0.0373945  
C209     C      0.487700000000     0.491940000000     0.236960000000    -0.13458    
C210     C      0.448090000000     0.492680000000     0.221300000000     0.0373778  
C211     C      0.487570000000     0.491900000000     0.142370000000     0.0253822  
C212     C      0.447600000000     0.451940000000     0.126810000000    -0.0744528  
C213     C      0.447870000000     0.451570000000     0.096010000000     0.037146   
C214     C      0.487480000000     0.491840000000     0.080310000000    -0.133813   
C215     C      0.527130000000     0.532140000000     0.095960000000     0.0371621  
C216     C      0.527480000000     0.531840000000     0.126760000000    -0.0744628  
C217     C      0.520920000000     0.980580000000     0.523500000000    -0.0736202  
C218     C      0.487620000000     0.991550000000     0.507560000000     0.0251153  
C219     C      0.454320000000     0.002500000000     0.523510000000    -0.0731747  
C220     C      0.453760000000     0.001610000000     0.554290000000     0.0387861  
C221     C      0.487610000000     0.991490000000     0.569870000000    -0.136034   
C222     C      0.521470000000     0.981400000000     0.554280000000     0.0382542  
C223     C      0.487630000000     0.991580000000     0.474600000000     0.0251402  
C224     C      0.532310000000     0.004070000000     0.458660000000    -0.0731569  
C225     C      0.532030000000     0.003250000000     0.427880000000     0.0387958  
C226     C      0.487630000000     0.991630000000     0.412300000000    -0.136059   
C227     C      0.443230000000     0.979980000000     0.427890000000     0.038312   
C228     C      0.442960000000     0.979110000000     0.458660000000    -0.0736249  
C229     C      0.499860000000     0.959320000000     0.125090000000    -0.0733133  
C230     C      0.487510000000     0.991600000000     0.141030000000     0.0251029  
C231     C      0.475140000000     0.023870000000     0.125090000000    -0.0728497  
C232     C      0.475980000000     0.024430000000     0.094310000000     0.0386519  
C233     C      0.487480000000     0.991570000000     0.078720000000    -0.13524    
C234     C      0.498990000000     0.958730000000     0.094310000000     0.0382453  
C235     C      0.487520000000     0.991620000000     0.173990000000     0.0252839  
C236     C      0.476440000000     0.947340000000     0.189930000000    -0.0735703  
C237     C      0.477320000000     0.947650000000     0.220710000000     0.0383311  
C238     C      0.487560000000     0.991640000000     0.236290000000    -0.136037   
C239     C      0.497790000000     0.035620000000     0.220700000000     0.0387963  
C240     C      0.498620000000     0.035910000000     0.189920000000    -0.0732157  
C241     C      0.987570000000     0.531510000000     0.461600000000    -0.0750586  
C242     C      0.987600000000     0.491570000000     0.477160000000     0.025637   
C243     C      0.987640000000     0.451660000000     0.461580000000    -0.0750256  
C244     C      0.988290000000     0.451980000000     0.430800000000     0.0375563  
C245     C      0.987610000000     0.491610000000     0.415140000000    -0.135093   
C246     C      0.986930000000     0.531220000000     0.430810000000     0.0375863  
C247     C      0.987590000000     0.491560000000     0.509650000000     0.0249743  
C248     C      0.027870000000     0.531150000000     0.525230000000    -0.0744091  
C249     C      0.028180000000     0.530820000000     0.556010000000     0.0380403  
C250     C      0.987560000000     0.491530000000     0.571670000000    -0.135416   
C251     C      0.946950000000     0.452250000000     0.556000000000     0.0375756  
C252     C      0.947290000000     0.451950000000     0.525210000000    -0.0748225  
C253     C      0.805800000000     0.269250000000     0.334470000000    -0.0741668  
C254     C      0.760500000000     0.267880000000     0.326000000000     0.0250616  
C255     C      0.762600000000     0.313820000000     0.318220000000    -0.0738101  
C256     C      0.808800000000     0.359850000000     0.318850000000     0.0361977  
C257     C      0.854050000000     0.360920000000     0.326930000000    -0.134376   
C258     C      0.852010000000     0.315110000000     0.334740000000     0.0364001  
C259     C      0.711440000000     0.218700000000     0.325240000000     0.0248519  
C260     C      0.710130000000     0.173610000000     0.316350000000    -0.0738022  
C261     C      0.664360000000     0.127270000000     0.316130000000     0.036022   
C262     C      0.618610000000     0.124940000000     0.324430000000    -0.134065   
C263     C      0.619650000000     0.169980000000     0.332970000000     0.0359507  
C264     C      0.665560000000     0.216260000000     0.333530000000    -0.0737348  
C265     C      0.212600000000     0.669490000000     0.318220000000    -0.0737462  
C266     C      0.214710000000     0.715430000000     0.326020000000     0.0250331  
C267     C      0.169420000000     0.714050000000     0.334500000000    -0.0741216  
C268     C      0.123210000000     0.668190000000     0.334770000000     0.0364219  
C269     C      0.121160000000     0.622400000000     0.326940000000    -0.134185   
C270     C      0.166410000000     0.623470000000     0.318850000000     0.0361456  
C271     C      0.263770000000     0.764610000000     0.325260000000     0.0248879  
C272     C      0.309660000000     0.767040000000     0.333530000000    -0.0737789  
C273     C      0.355570000000     0.813320000000     0.332970000000     0.0359432  
C274     C      0.356600000000     0.858360000000     0.324440000000    -0.134097   
C275     C      0.310850000000     0.856030000000     0.316160000000     0.0360637  
C276     C      0.265080000000     0.809700000000     0.316380000000    -0.0738962  
C277     C      0.999250000000     0.536160000000     0.192610000000    -0.0740873  
C278     C      0.987540000000     0.491710000000     0.176660000000     0.0257085  
C279     C      0.975850000000     0.447240000000     0.192600000000    -0.0736788  
C280     C      0.976720000000     0.447530000000     0.223380000000     0.038272   
C281     C      0.987580000000     0.491690000000     0.238970000000    -0.135467   
C282     C      0.998420000000     0.535860000000     0.223390000000     0.0378565  
C283     C      0.987510000000     0.491710000000     0.143700000000     0.0254647  
C284     C      0.975760000000     0.524440000000     0.127770000000    -0.0732315  
C285     C      0.976580000000     0.525010000000     0.096990000000     0.037863   
C286     C      0.987460000000     0.491710000000     0.081400000000    -0.13442    
C287     C      0.998360000000     0.458420000000     0.096970000000     0.0375344  
C288     C      0.999240000000     0.458980000000     0.127750000000    -0.0736818  
C289     C      0.987050000000     0.951520000000     0.462520000000    -0.0747594  
C290     C      0.987700000000     0.991770000000     0.478120000000     0.025036   
C291     C      0.988390000000     0.032060000000     0.462540000000    -0.0743484  
C292     C      0.987770000000     0.031790000000     0.431740000000     0.0375748  
C293     C      0.987760000000     0.991840000000     0.416050000000    -0.134845   
C294     C      0.987720000000     0.951850000000     0.431720000000     0.0370863  
C295     C      0.987660000000     0.991730000000     0.510640000000     0.0244779  
C296     C      0.947300000000     0.952180000000     0.526200000000    -0.0746228  
C297     C      0.946940000000     0.952450000000     0.557000000000     0.037229   
C298     C      0.987590000000     0.991650000000     0.572700000000    -0.135291   
C299     C      0.028280000000     0.030880000000     0.557040000000     0.0381329  
C300     C      0.027990000000     0.031240000000     0.526250000000    -0.0737933  
C301     C      0.709990000000     0.673870000000     0.317110000000    -0.0741398  
C302     C      0.711510000000     0.718990000000     0.326130000000     0.0249408  
C303     C      0.665690000000     0.716700000000     0.334460000000    -0.0737329  
C304     C      0.619650000000     0.670520000000     0.333830000000     0.0361148  
C305     C      0.618460000000     0.625450000000     0.325210000000    -0.134235   
C306     C      0.664130000000     0.627660000000     0.316860000000     0.0364125  
C307     C      0.760720000000     0.768050000000     0.326890000000     0.0250338  
C308     C      0.806050000000     0.769180000000     0.335080000000    -0.0741086  
C309     C      0.852380000000     0.814960000000     0.335280000000     0.0365167  
C310     C      0.854490000000     0.860860000000     0.327710000000    -0.134307   
C311     C      0.809230000000     0.860010000000     0.319880000000     0.0362976  
C312     C      0.762950000000     0.814110000000     0.319300000000    -0.0739626  
C313     C      0.212590000000     0.169660000000     0.319260000000    -0.0738864  
C314     C      0.214820000000     0.215710000000     0.326870000000     0.0250412  
C315     C      0.169500000000     0.214570000000     0.335090000000    -0.0739586  
C316     C      0.123160000000     0.168800000000     0.335290000000     0.0364383  
C317     C      0.121050000000     0.122900000000     0.327690000000    -0.134064   
C318     C      0.166300000000     0.123760000000     0.319850000000     0.0363356  
C319     C      0.264020000000     0.264770000000     0.326100000000     0.0249783  
C320     C      0.309850000000     0.267050000000     0.334410000000    -0.073714   
C321     C      0.355890000000     0.313240000000     0.333780000000     0.0361364  
C322     C      0.357070000000     0.358310000000     0.325190000000    -0.134206   
C323     C      0.311400000000     0.356110000000     0.316870000000     0.0364528  
C324     C      0.265540000000     0.309900000000     0.317110000000    -0.0741194  
C325     C      0.027290000000     0.991150000000     0.193140000000    -0.0743669  
C326     C      0.987650000000     0.991780000000     0.177560000000     0.0251864  
C327     C      0.948050000000     0.992460000000     0.193160000000    -0.0748142  
C328     C      0.948410000000     0.993140000000     0.223960000000     0.0371656  
C329     C      0.987730000000     0.991860000000     0.239630000000    -0.134814   
C330     C      0.027010000000     0.990540000000     0.223940000000     0.0376147  
C331     C      0.987620000000     0.991740000000     0.145050000000     0.0243864  
C332     C      0.027810000000     0.031390000000     0.129430000000    -0.0734667  
C333     C      0.027470000000     0.031690000000     0.098640000000     0.0380354  
C334     C      0.987550000000     0.991660000000     0.082980000000    -0.134535   
C335     C      0.947650000000     0.951660000000     0.098680000000     0.0370995  
C336     C      0.947390000000     0.952050000000     0.129480000000    -0.0742936  
H1       H      0.409660000000     0.733390000000     0.642980000000     0.045744   
H2       H      0.409010000000     0.813350000000     0.643400000000     0.0284689  
H3       H      0.565430000000     0.892140000000     0.672840000000     0.0281456  
H4       H      0.565530000000     0.812030000000     0.673680000000     0.0456042  
H5       H      0.565890000000     0.749390000000     0.643220000000     0.0456811  
H6       H      0.566470000000     0.669410000000     0.644220000000     0.0285063  
H7       H      0.410080000000     0.591200000000     0.673700000000     0.0282295  
H8       H      0.410040000000     0.671350000000     0.673970000000     0.0456233  
H9       H      0.409280000000     0.233500000000     0.643190000000     0.0457467  
H10      H      0.408700000000     0.313470000000     0.644180000000     0.0285275  
H11      H      0.565050000000     0.391670000000     0.673740000000     0.0282137  
H12      H      0.565080000000     0.311520000000     0.674010000000     0.0456616  
H13      H      0.565510000000     0.249500000000     0.643020000000     0.0457285  
H14      H      0.566160000000     0.169540000000     0.643450000000     0.0285378  
H15      H      0.409700000000     0.090730000000     0.672820000000     0.0283336  
H16      H      0.409590000000     0.170840000000     0.673650000000     0.0456275  
H17      H      0.909230000000     0.671240000000     0.675560000000     0.0456621  
H18      H      0.908640000000     0.590680000000     0.674590000000     0.028478   
H19      H      0.065030000000     0.668780000000     0.645100000000     0.0281875  
H20      H      0.065080000000     0.748980000000     0.644810000000     0.0455819  
H21      H      0.065470000000     0.811430000000     0.675790000000     0.0456889  
H22      H      0.066110000000     0.892030000000     0.675360000000     0.0284146  
H23      H      0.909700000000     0.814420000000     0.645920000000     0.0281937  
H24      H      0.909600000000     0.734220000000     0.645090000000     0.0456051  
H25      H      0.065440000000     0.248900000000     0.645200000000     0.0456027  
H26      H      0.065350000000     0.168700000000     0.646020000000     0.0282293  
H27      H      0.908880000000     0.091040000000     0.675370000000     0.0285771  
H28      H      0.909510000000     0.171640000000     0.675820000000     0.045725   
H29      H      0.909940000000     0.234110000000     0.644850000000     0.0456174  
H30      H      0.909980000000     0.314300000000     0.645120000000     0.0282194  
H31      H      0.066330000000     0.392410000000     0.674690000000     0.0284791  
H32      H      0.065740000000     0.311840000000     0.675680000000     0.0456782  
H33      H      0.487540000000     0.420480000000     0.845770000000     0.0476523  
H34      H      0.486730000000     0.420030000000     0.899780000000     0.0269828  
H35      H      0.488040000000     0.563110000000     0.899690000000     0.0269694  
H36      H      0.487270000000     0.562530000000     0.845680000000     0.0476315  
H37      H      0.415700000000     0.490190000000     0.805340000000     0.0476998  
H38      H      0.415240000000     0.489360000000     0.751330000000     0.0271066  
H39      H      0.559720000000     0.493490000000     0.751400000000     0.0271114  
H40      H      0.559180000000     0.492730000000     0.805420000000     0.0476756  
H41      H      0.488270000000     0.920750000000     0.844450000000     0.047632   
H42      H      0.487480000000     0.920260000000     0.898460000000     0.0268628  
H43      H      0.487450000000     0.062690000000     0.898420000000     0.0268681  
H44      H      0.486700000000     0.062160000000     0.844410000000     0.0476819  
H45      H      0.415600000000     0.989840000000     0.804140000000     0.047705   
H46      H      0.415140000000     0.989060000000     0.750130000000     0.0269539  
H47      H      0.559920000000     0.993790000000     0.750170000000     0.0269196  
H48      H      0.559400000000     0.993030000000     0.804180000000     0.0477098  
H49      H      0.807570000000     0.569160000000     0.976440000000     0.0454044  
H50      H      0.887940000000     0.569430000000     0.977390000000     0.0281033  
H51      H      0.810060000000     0.414360000000     0.009080000000     0.0289414  
H52      H      0.729980000000     0.414690000000     0.009390000000     0.0465579  
H53      H      0.667160000000     0.413400000000     0.978320000000     0.0441436  
H54      H      0.586770000000     0.413120000000     0.978620000000     0.0284991  
H55      H      0.665250000000     0.570650000000     0.005930000000     0.0332214  
H56      H      0.745380000000     0.570440000000     0.006900000000     0.043944   
H57      H      0.244850000000     0.568750000000     0.009310000000     0.0465933  
H58      H      0.164770000000     0.569070000000     0.009020000000     0.0289468  
H59      H      0.086870000000     0.413970000000     0.977390000000     0.0282405  
H60      H      0.167230000000     0.414240000000     0.976440000000     0.0455088  
H61      H      0.229450000000     0.413000000000     0.006910000000     0.0439969  
H62      H      0.309580000000     0.412790000000     0.005950000000     0.0332676  
H63      H      0.388040000000     0.570280000000     0.978550000000     0.028484   
H64      H      0.307650000000     0.569990000000     0.978240000000     0.0441448  
H65      H      0.907290000000     0.434550000000     0.847890000000     0.0461896  
H66      H      0.908300000000     0.433200000000     0.901460000000     0.0255009  
H67      H      0.066480000000     0.550180000000     0.901460000000     0.0254912  
H68      H      0.067510000000     0.548780000000     0.847890000000     0.046168   
H69      H      0.045590000000     0.571350000000     0.805320000000     0.0462699  
H70      H      0.046960000000     0.570250000000     0.751760000000     0.0255172  
H71      H      0.927910000000     0.412920000000     0.751780000000     0.0254949  
H72      H      0.929220000000     0.411900000000     0.805350000000     0.0462274  
H73      H      0.731660000000     0.920040000000     0.009150000000     0.0458272  
H74      H      0.810980000000     0.918530000000     0.009630000000     0.0284716  
H75      H      0.891980000000     0.074730000000     0.979930000000     0.0281048  
H76      H      0.812080000000     0.075700000000     0.978230000000     0.0451073  
H77      H      0.747030000000     0.075720000000     0.007230000000     0.04917    
H78      H      0.666140000000     0.074730000000     0.005520000000     0.0317499  
H79      H      0.590910000000     0.918480000000     0.975920000000     0.0278122  
H80      H      0.671740000000     0.920000000000     0.976400000000     0.0450765  
H81      H      0.243300000000     0.063080000000     0.009080000000     0.0458242  
H82      H      0.163980000000     0.064600000000     0.009560000000     0.0285063  
H83      H      0.082930000000     0.908340000000     0.979960000000     0.0282673  
H84      H      0.162830000000     0.907360000000     0.978260000000     0.0451609  
H85      H      0.227900000000     0.907380000000     0.007250000000     0.0491961  
H86      H      0.308780000000     0.908360000000     0.005550000000     0.031772   
H87      H      0.384010000000     0.064550000000     0.975850000000     0.0278259  
H88      H      0.303180000000     0.063040000000     0.976320000000     0.0451061  
H89      H      0.067600000000     0.048360000000     0.849170000000     0.0460858  
H90      H      0.066590000000     0.049760000000     0.902730000000     0.0254685  
H91      H      0.908270000000     0.933180000000     0.902730000000     0.0254312  
H92      H      0.907250000000     0.934540000000     0.849170000000     0.0460241  
H93      H      0.928690000000     0.911950000000     0.806500000000     0.0461167  
H94      H      0.927380000000     0.913050000000     0.752940000000     0.0256029  
H95      H      0.047490000000     0.069920000000     0.752960000000     0.0256492  
H96      H      0.046150000000     0.070990000000     0.806520000000     0.0461365  
H97      H      0.567750000000     0.514290000000     0.470770000000     0.0461969  
H98      H      0.566750000000     0.511970000000     0.417200000000     0.0256012  
H99      H      0.408790000000     0.471560000000     0.417200000000     0.0256058  
H100     H      0.407720000000     0.469060000000     0.470750000000     0.0462229  
H101     H      0.429420000000     0.513020000000     0.513430000000     0.0462643  
H102     H      0.428030000000     0.510520000000     0.566990000000     0.0256268  
H103     H      0.547300000000     0.472540000000     0.566970000000     0.0256088  
H104     H      0.546010000000     0.470220000000     0.513410000000     0.0462401  
H105     H      0.558590000000     0.491640000000     0.178770000000     0.0478918  
H106     H      0.558390000000     0.490870000000     0.232780000000     0.0271453  
H107     H      0.417010000000     0.493010000000     0.232860000000     0.0271714  
H108     H      0.416660000000     0.492220000000     0.178850000000     0.0479024  
H109     H      0.416530000000     0.420720000000     0.138500000000     0.0477975  
H110     H      0.416730000000     0.420160000000     0.084480000000     0.0275715  
H111     H      0.558240000000     0.563520000000     0.084400000000     0.027541   
H112     H      0.558590000000     0.563070000000     0.138420000000     0.0477705  
H113     H      0.428980000000     0.012470000000     0.512380000000     0.0463738  
H114     H      0.427650000000     0.010040000000     0.565940000000     0.0256574  
H115     H      0.547570000000     0.972960000000     0.565910000000     0.0254856  
H116     H      0.546270000000     0.970630000000     0.512350000000     0.0461461  
H117     H      0.567900000000     0.015220000000     0.469800000000     0.0463197  
H118     H      0.566910000000     0.012880000000     0.416240000000     0.02566    
H119     H      0.408360000000     0.970360000000     0.416240000000     0.0255219  
H120     H      0.407360000000     0.967940000000     0.469810000000     0.046124   
H121     H      0.464090000000     0.048390000000     0.136230000000     0.046366   
H122     H      0.466440000000     0.049740000000     0.082660000000     0.0261118  
H123     H      0.508510000000     0.933410000000     0.082670000000     0.026073   
H124     H      0.510920000000     0.934810000000     0.136230000000     0.0463356  
H125     H      0.466370000000     0.912000000000     0.178790000000     0.0463739  
H126     H      0.468790000000     0.913090000000     0.232360000000     0.0256959  
H127     H      0.506330000000     0.070190000000     0.232340000000     0.0256754  
H128     H      0.508680000000     0.071230000000     0.178780000000     0.046411   
H129     H      0.987780000000     0.420570000000     0.473260000000     0.0476615  
H130     H      0.988580000000     0.420880000000     0.419240000000     0.0268592  
H131     H      0.986650000000     0.562350000000     0.419280000000     0.0268629  
H132     H      0.987420000000     0.562580000000     0.473290000000     0.0476395  
H133     H      0.059350000000     0.561980000000     0.513550000000     0.0477942  
H134     H      0.059820000000     0.561680000000     0.567560000000     0.027031   
H135     H      0.915290000000     0.421390000000     0.567530000000     0.0270418  
H136     H      0.915820000000     0.421130000000     0.513520000000     0.0477491  
H137     H      0.728710000000     0.314230000000     0.311160000000     0.0457842  
H138     H      0.809150000000     0.394460000000     0.312530000000     0.0285206  
H139     H      0.886110000000     0.314680000000     0.341350000000     0.0281066  
H140     H      0.805620000000     0.234920000000     0.341210000000     0.0455543  
H141     H      0.744430000000     0.174060000000     0.309220000000     0.0457026  
H142     H      0.664810000000     0.093340000000     0.309170000000     0.0288157  
H143     H      0.585100000000     0.169420000000     0.339670000000     0.0288373  
H144     H      0.665110000000     0.249960000000     0.340950000000     0.0457867  
H145     H      0.169610000000     0.748380000000     0.341260000000     0.0455584  
H146     H      0.089110000000     0.668630000000     0.341400000000     0.0282268  
H147     H      0.166050000000     0.588860000000     0.312510000000     0.0285823  
H148     H      0.246490000000     0.669080000000     0.311150000000     0.0457729  
H149     H      0.310110000000     0.733340000000     0.340940000000     0.0457973  
H150     H      0.390130000000     0.813870000000     0.339660000000     0.0288041  
H151     H      0.310410000000     0.889970000000     0.309210000000     0.028682   
H152     H      0.230780000000     0.809260000000     0.309270000000     0.045707   
H153     H      0.965290000000     0.411800000000     0.181450000000     0.0463236  
H154     H      0.967710000000     0.412820000000     0.235010000000     0.0255203  
H155     H      0.007440000000     0.570560000000     0.235040000000     0.0260699  
H156     H      0.009790000000     0.571610000000     0.181480000000     0.0468825  
H157     H      0.965190000000     0.549320000000     0.138920000000     0.0462503  
H158     H      0.967530000000     0.550680000000     0.085360000000     0.0261715  
H159     H      0.007390000000     0.432750000000     0.085320000000     0.0267317  
H160     H      0.009820000000     0.434100000000     0.138880000000     0.0468605  
H161     H      0.988770000000     0.063400000000     0.474220000000     0.0475551  
H162     H      0.988040000000     0.063200000000     0.420210000000     0.0270044  
H163     H      0.987470000000     0.920480000000     0.420170000000     0.0269877  
H164     H      0.986640000000     0.920150000000     0.474180000000     0.0475412  
H165     H      0.915780000000     0.921410000000     0.514510000000     0.0476232  
H166     H      0.915230000000     0.921630000000     0.568530000000     0.0270837  
H167     H      0.059970000000     0.061680000000     0.568600000000     0.0270778  
H168     H      0.059530000000     0.062030000000     0.514590000000     0.0477347  
H169     H      0.665390000000     0.750430000000     0.341960000000     0.0457856  
H170     H      0.585140000000     0.670010000000     0.340580000000     0.0285559  
H171     H      0.664450000000     0.593690000000     0.309820000000     0.0281685  
H172     H      0.744190000000     0.674190000000     0.309930000000     0.0456396  
H173     H      0.805790000000     0.734750000000     0.341670000000     0.0455328  
H174     H      0.886500000000     0.814390000000     0.341700000000     0.0278782  
H175     H      0.809640000000     0.894710000000     0.313730000000     0.0280054  
H176     H      0.729080000000     0.814720000000     0.312420000000     0.0456424  
H177     H      0.169760000000     0.249000000000     0.341690000000     0.0455828  
H178     H      0.089050000000     0.169360000000     0.341720000000     0.0280879  
H179     H      0.165890000000     0.089060000000     0.313680000000     0.0281894  
H180     H      0.246450000000     0.169050000000     0.312360000000     0.0457197  
H181     H      0.310170000000     0.233320000000     0.341890000000     0.0458439  
H182     H      0.390400000000     0.313740000000     0.340510000000     0.0285751  
H183     H      0.311070000000     0.390090000000     0.309850000000     0.0281863  
H184     H      0.231330000000     0.309590000000     0.309950000000     0.0456887  
H185     H      0.917200000000     0.993080000000     0.181500000000     0.0477728  
H186     H      0.917550000000     0.993920000000     0.235510000000     0.0270992  
H187     H      0.057900000000     0.989780000000     0.235470000000     0.027127   
H188     H      0.058120000000     0.990500000000     0.181460000000     0.0477569  
H189     H      0.059130000000     0.062420000000     0.141090000000     0.0477743  
H190     H      0.058800000000     0.062860000000     0.087080000000     0.0274638  
H191     H      0.916300000000     0.920460000000     0.087160000000     0.0274622  
H192     H      0.916090000000     0.921050000000     0.141170000000     0.0476704  
O1       O      0.009080000000     0.970600000000     0.286010000000    -0.545077   
O2       O      0.007970000000     0.969490000000     0.369660000000    -0.545357   
O3       O      0.945380000000     0.908050000000     0.327680000000    -0.546703   
O4       O      0.071680000000     0.032080000000     0.327980000000    -0.545695   
O5       O      0.030160000000     0.075710000000     0.327680000000    -0.546058   
O6       O      0.903860000000     0.951680000000     0.327990000000    -0.546363   
O7       O      0.967580000000     0.014260000000     0.369670000000    -0.545176   
O8       O      0.966440000000     0.013160000000     0.286020000000    -0.545253   
O9       O      0.007120000000     0.468630000000     0.285170000000    -0.545864   
O10      O      0.008430000000     0.469860000000     0.368780000000    -0.545977   
O11      O      0.944790000000     0.407800000000     0.327450000000    -0.548285   
O12      O      0.071450000000     0.531430000000     0.326500000000    -0.545193   
O13      O      0.030420000000     0.575520000000     0.327470000000    -0.547307   
O14      O      0.903760000000     0.451880000000     0.326510000000    -0.544965   
O15      O      0.966790000000     0.513420000000     0.368800000000    -0.546152   
O16      O      0.968070000000     0.514730000000     0.285190000000    -0.546056   
O17      O      0.467570000000     0.014220000000     0.282510000000    -0.54573    
O18      O      0.463960000000     0.010510000000     0.366090000000    -0.545646   
O19      O      0.527780000000     0.075490000000     0.325410000000    -0.546219   
O20      O      0.403800000000     0.949220000000     0.323200000000    -0.546758   
O21      O      0.447440000000     0.907800000000     0.325410000000    -0.545841   
O22      O      0.571420000000     0.034080000000     0.323180000000    -0.545896   
O23      O      0.511290000000     0.972780000000     0.366080000000    -0.545977   
O24      O      0.507620000000     0.969080000000     0.282500000000    -0.545886   
O25      O      0.465960000000     0.512730000000     0.283360000000    -0.545662   
O26      O      0.464670000000     0.511300000000     0.367010000000    -0.54539    
O27      O      0.527490000000     0.575710000000     0.325700000000    -0.544757   
O28      O      0.403890000000     0.449020000000     0.324680000000    -0.547634   
O29      O      0.448050000000     0.408060000000     0.325650000000    -0.544954   
O30      O      0.571640000000     0.534740000000     0.324650000000    -0.547615   
O31      O      0.510900000000     0.472400000000     0.366980000000    -0.545448   
O32      O      0.509530000000     0.471110000000     0.283330000000    -0.545828   
O33      O      0.948740000000     0.036660000000     0.994270000000    -0.54481    
O34      O      0.071300000000     0.031520000000     0.995240000000    -0.547971   
O35      O      0.011010000000     0.034040000000     0.952930000000    -0.544191   
O36      O      0.009780000000     0.034180000000     0.036580000000    -0.542254   
O37      O      0.965220000000     0.949020000000     0.036610000000    -0.542608   
O38      O      0.963880000000     0.948980000000     0.952960000000    -0.544626   
O39      O      0.026200000000     0.946450000000     0.994290000000    -0.544262   
O40      O      0.903650000000     0.951590000000     0.995280000000    -0.548091   
O41      O      0.071240000000     0.534140000000     0.994500000000    -0.547334   
O42      O      0.946210000000     0.534330000000     0.992260000000    -0.547263   
O43      O      0.006900000000     0.534280000000     0.035180000000    -0.542798   
O44      O      0.010590000000     0.534260000000     0.951600000000    -0.545238   
O45      O      0.964200000000     0.449140000000     0.951600000000    -0.545382   
O46      O      0.967950000000     0.449140000000     0.035180000000    -0.543021   
O47      O      0.903570000000     0.449270000000     0.994520000000    -0.547109   
O48      O      0.028610000000     0.449090000000     0.992250000000    -0.546387   
O49      O      0.531300000000     0.951560000000     0.990230000000    -0.547523   
O50      O      0.403600000000     0.946420000000     0.991200000000    -0.544752   
O51      O      0.467140000000     0.948920000000     0.948910000000    -0.545659   
O52      O      0.468480000000     0.949010000000     0.032520000000    -0.543275   
O53      O      0.506440000000     0.034090000000     0.032510000000    -0.54292    
O54      O      0.507770000000     0.034090000000     0.948900000000    -0.545555   
O55      O      0.443610000000     0.031500000000     0.990210000000    -0.547276   
O56      O      0.571310000000     0.036630000000     0.991200000000    -0.544492   
O57      O      0.403530000000     0.449050000000     0.991950000000    -0.546401   
O58      O      0.528780000000     0.449210000000     0.992290000000    -0.546162   
O59      O      0.465600000000     0.449180000000     0.033940000000    -0.543116   
O60      O      0.466710000000     0.449060000000     0.950290000000    -0.545215   
O61      O      0.508070000000     0.534230000000     0.950240000000    -0.545222   
O62      O      0.509260000000     0.534360000000     0.033900000000    -0.542964   
O63      O      0.571280000000     0.534360000000     0.991920000000    -0.546517   
O64      O      0.446030000000     0.534200000000     0.992240000000    -0.546104   
O65      O      0.944870000000     0.969010000000     0.702730000000    -0.54505    
O66      O      0.944940000000     0.970380000000     0.619070000000    -0.545229   
O67      O      0.945250000000     0.907640000000     0.660390000000    -0.547155   
O68      O      0.944620000000     0.032480000000     0.661380000000    -0.544449   
O69      O      0.029770000000     0.075450000000     0.660450000000    -0.54721    
O70      O      0.030400000000     0.950610000000     0.661380000000    -0.544985   
O71      O      0.030150000000     0.012800000000     0.619100000000    -0.544923   
O72      O      0.030080000000     0.014010000000     0.702750000000    -0.544738   
O73      O      0.030070000000     0.514130000000     0.701640000000    -0.545765   
O74      O      0.030130000000     0.512800000000     0.618030000000    -0.546249   
O75      O      0.029630000000     0.575440000000     0.659330000000    -0.547274   
O76      O      0.030510000000     0.450740000000     0.660340000000    -0.544913   
O77      O      0.945360000000     0.407640000000     0.659350000000    -0.547519   
O78      O      0.944480000000     0.532340000000     0.660290000000    -0.54518    
O79      O      0.944910000000     0.470260000000     0.618010000000    -0.54633    
O80      O      0.944860000000     0.468980000000     0.701620000000    -0.546142   
O81      O      0.530160000000     0.012830000000     0.699700000000    -0.546074   
O82      O      0.530200000000     0.011560000000     0.616080000000    -0.545727   
O83      O      0.530440000000     0.075250000000     0.657420000000    -0.545256   
O84      O      0.529850000000     0.949800000000     0.658380000000    -0.548087   
O85      O      0.444700000000     0.907630000000     0.657400000000    -0.545174   
O86      O      0.445290000000     0.033070000000     0.658370000000    -0.547178   
O87      O      0.444980000000     0.971350000000     0.616070000000    -0.545998   
O88      O      0.444950000000     0.970020000000     0.699680000000    -0.546518   
O89      O      0.444930000000     0.470100000000     0.700820000000    -0.545657   
O90      O      0.445020000000     0.471460000000     0.617170000000    -0.545464   
O91      O      0.444540000000     0.407630000000     0.658500000000    -0.545064   
O92      O      0.445470000000     0.533250000000     0.659480000000    -0.547399   
O93      O      0.530620000000     0.575250000000     0.658540000000    -0.545077   
O94      O      0.529690000000     0.449640000000     0.659500000000    -0.547571   
O95      O      0.530220000000     0.511480000000     0.617200000000    -0.545495   
O96      O      0.530140000000     0.512730000000     0.700850000000    -0.545652   
V1       V      0.010190000000     0.968300000000     0.327840000000     1.38673    
V2       V      0.965350000000     0.015460000000     0.327840000000     1.38678    
V3       V      0.009660000000     0.467720000000     0.326970000000     1.38923    
V4       V      0.965550000000     0.515600000000     0.326990000000     1.38662    
V5       V      0.464000000000     0.014040000000     0.324300000000     1.38912    
V6       V      0.511220000000     0.969260000000     0.324290000000     1.38654    
V7       V      0.463790000000     0.513900000000     0.325190000000     1.38696    
V8       V      0.511740000000     0.469860000000     0.325150000000     1.38727    
V9       V      0.011960000000     0.037520000000     0.994750000000     1.38459    
V10      V      0.962980000000     0.945590000000     0.994780000000     1.38151    
V11      V      0.010460000000     0.537700000000     0.993390000000     1.38628    
V12      V      0.964350000000     0.445710000000     0.993390000000     1.38375    
V13      V      0.465960000000     0.945560000000     0.990720000000     1.38363    
V14      V      0.508950000000     0.037500000000     0.990700000000     1.38448    
V15      V      0.464450000000     0.445710000000     0.992120000000     1.3836     
V16      V      0.510370000000     0.537700000000     0.992070000000     1.38328    
V17      V      0.941500000000     0.968220000000     0.660900000000     1.3847     
V18      V      0.033520000000     0.014880000000     0.660930000000     1.38844    
V19      V      0.033510000000     0.514940000000     0.659830000000     1.38869    
V20      V      0.941480000000     0.468140000000     0.659820000000     1.3878     
V21      V      0.533590000000     0.014120000000     0.657890000000     1.38895    
V22      V      0.441560000000     0.968750000000     0.657880000000     1.38716    
V23      V      0.441570000000     0.468850000000     0.658990000000     1.3869     
V24      V      0.533590000000     0.514030000000     0.659020000000     1.38711    


