data_structure

_audit_creation_method RASPA-1.0
_audit_creation_date 2023-5-22
_audit_author_name 'Poobodin Mano'

_cell_length_a    60.6164
_cell_length_b    60.6164
_cell_length_c    30.3361
_cell_angle_alpha 90
_cell_angle_beta  90
_cell_angle_gamma 90
_cell_volume      111465

_symmetry_cell_setting          triclinic
_symmetry_space_group_name_Hall 'P 1'
_symmetry_space_group_name_H-M  'P 1'
_symmetry_Int_Tables_number     1

_symmetry_equiv_pos_as_xyz 'x,y,z'

loop_
_atom_site_label
_atom_site_type_symbol
_atom_site_fract_x
_atom_site_fract_y
_atom_site_fract_z
_atom_site_charge
C1       C      0.366900000000     0.867050000000     0.076290000000     0.434541   
C2       C      0.366690000000     0.866870000000     0.909570000000     0.43469    
C3       C      0.366790000000     0.908700000000     0.992680000000     0.43462    
C4       C      0.366800000000     0.825270000000     0.993130000000     0.434725   
C5       C      0.366930000000     0.866820000000     0.576290000000     0.434522   
C6       C      0.366690000000     0.866710000000     0.409570000000     0.434624   
C7       C      0.366800000000     0.908490000000     0.492740000000     0.434599   
C8       C      0.366820000000     0.825060000000     0.493060000000     0.43423    
C9       C      0.366950000000     0.117150000000     0.906690000000     0.43457    
C10      C      0.366710000000     0.117280000000     0.073410000000     0.434208   
C11      C      0.366820000000     0.075490000000     0.990250000000     0.434469   
C12      C      0.366850000000     0.158920000000     0.989900000000     0.434626   
C13      C      0.366910000000     0.116940000000     0.406690000000     0.434665   
C14      C      0.366710000000     0.117100000000     0.573410000000     0.434818   
C15      C      0.366810000000     0.075280000000     0.490290000000     0.434602   
C16      C      0.366820000000     0.158710000000     0.489860000000     0.434814   
C17      C      0.866670000000     0.616730000000     0.076690000000     0.434366   
C18      C      0.866490000000     0.617520000000     0.909970000000     0.434496   
C19      C      0.908290000000     0.616690000000     0.993160000000     0.434541   
C20      C      0.824860000000     0.617580000000     0.993430000000     0.434744   
C21      C      0.867090000000     0.617300000000     0.576700000000     0.434408   
C22      C      0.866760000000     0.616730000000     0.409980000000     0.434424   
C23      C      0.908650000000     0.617480000000     0.493010000000     0.434393   
C24      C      0.825230000000     0.616530000000     0.493730000000     0.434469   
C25      C      0.116830000000     0.616490000000     0.906520000000     0.434741   
C26      C      0.116840000000     0.617190000000     0.073230000000     0.434894   
C27      C      0.075090000000     0.616630000000     0.989960000000     0.434792   
C28      C      0.158520000000     0.616990000000     0.989850000000     0.434613   
C29      C      0.117040000000     0.617460000000     0.406520000000     0.434456   
C30      C      0.117230000000     0.616990000000     0.573230000000     0.43452    
C31      C      0.075430000000     0.617470000000     0.490100000000     0.4348     
C32      C      0.158870000000     0.617020000000     0.489660000000     0.434608   
C33      C      0.616900000000     0.117390000000     0.076160000000     0.434508   
C34      C      0.617190000000     0.117690000000     0.909440000000     0.434708   
C35      C      0.617250000000     0.075820000000     0.992450000000     0.434468   
C36      C      0.616890000000     0.159250000000     0.993110000000     0.434773   
C37      C      0.616590000000     0.116900000000     0.576170000000     0.434794   
C38      C      0.616740000000     0.116860000000     0.409450000000     0.434598   
C39      C      0.616450000000     0.075130000000     0.492780000000     0.434582   
C40      C      0.616830000000     0.158560000000     0.492800000000     0.434743   
C41      C      0.616710000000     0.867460000000     0.906960000000     0.434294   
C42      C      0.616880000000     0.867140000000     0.073680000000     0.43469    
C43      C      0.617220000000     0.909030000000     0.990750000000     0.435027   
C44      C      0.616350000000     0.825610000000     0.989920000000     0.435144   
C45      C      0.616760000000     0.866610000000     0.406960000000     0.434661   
C46      C      0.617010000000     0.866670000000     0.573680000000     0.43468    
C47      C      0.616450000000     0.908340000000     0.490270000000     0.434862   
C48      C      0.617320000000     0.824910000000     0.490420000000     0.434896   
C49      C      0.366640000000     0.408700000000     0.992030000000     0.43428    
C50      C      0.366800000000     0.325270000000     0.991010000000     0.434556   
C51      C      0.325020000000     0.366930000000     0.992120000000     0.434446   
C52      C      0.408450000000     0.367040000000     0.991170000000     0.434595   
C53      C      0.366870000000     0.408490000000     0.491720000000     0.434588   
C54      C      0.366770000000     0.325060000000     0.490810000000     0.434771   
C55      C      0.325110000000     0.366840000000     0.491920000000     0.434694   
C56      C      0.408540000000     0.366680000000     0.490860000000     0.434722   
C57      C      0.366480000000     0.575490000000     0.991260000000     0.434426   
C58      C      0.366640000000     0.658920000000     0.992230000000     0.434417   
C59      C      0.324850000000     0.617280000000     0.991170000000     0.434443   
C60      C      0.408280000000     0.617160000000     0.992080000000     0.434647   
C61      C      0.367010000000     0.575280000000     0.490910000000     0.434474   
C62      C      0.366850000000     0.658710000000     0.491860000000     0.434644   
C63      C      0.325220000000     0.616890000000     0.490710000000     0.434505   
C64      C      0.408660000000     0.617120000000     0.491810000000     0.434291   
C65      C      0.575240000000     0.367380000000     0.992100000000     0.434317   
C66      C      0.658670000000     0.367230000000     0.991280000000     0.434496   
C67      C      0.616860000000     0.325610000000     0.992300000000     0.434333   
C68      C      0.617080000000     0.409040000000     0.991320000000     0.434523   
C69      C      0.575330000000     0.366510000000     0.491670000000     0.434635   
C70      C      0.658760000000     0.366710000000     0.490790000000     0.434921   
C71      C      0.617140000000     0.324900000000     0.491730000000     0.434677   
C72      C      0.616970000000     0.408330000000     0.490950000000     0.434798   
C73      C      0.617130000000     0.575840000000     0.992020000000     0.43419    
C74      C      0.616400000000     0.659270000000     0.990740000000     0.434373   
C75      C      0.658490000000     0.617920000000     0.991860000000     0.434486   
C76      C      0.575060000000     0.617250000000     0.991150000000     0.434197   
C77      C      0.616880000000     0.575110000000     0.492180000000     0.434517   
C78      C      0.617540000000     0.658540000000     0.491670000000     0.434544   
C79      C      0.658890000000     0.616460000000     0.492750000000     0.434635   
C80      C      0.575470000000     0.617170000000     0.491350000000     0.434603   
C81      C      0.116900000000     0.367080000000     0.076420000000     0.43462    
C82      C      0.117050000000     0.366870000000     0.909710000000     0.434645   
C83      C      0.075240000000     0.366970000000     0.992850000000     0.43441    
C84      C      0.158680000000     0.366980000000     0.993240000000     0.434586   
C85      C      0.117010000000     0.367110000000     0.576430000000     0.434638   
C86      C      0.117110000000     0.366880000000     0.409710000000     0.434648   
C87      C      0.075330000000     0.367010000000     0.492910000000     0.434599   
C88      C      0.158760000000     0.367000000000     0.493180000000     0.434754   
C89      C      0.866770000000     0.367150000000     0.907070000000     0.434001   
C90      C      0.866670000000     0.366920000000     0.073790000000     0.434633   
C91      C      0.908450000000     0.367010000000     0.990610000000     0.434505   
C92      C      0.825020000000     0.367070000000     0.990310000000     0.434641   
C93      C      0.866900000000     0.367110000000     0.407070000000     0.434706   
C94      C      0.866710000000     0.366890000000     0.573790000000     0.434668   
C95      C      0.908540000000     0.367010000000     0.490690000000     0.434572   
C96      C      0.825110000000     0.366990000000     0.490200000000     0.434879   
C97      C      0.860520000000     0.348110000000     0.788770000000    -0.0739299  
C98      C      0.866730000000     0.367060000000     0.765000000000     0.0250284  
C99      C      0.872920000000     0.386070000000     0.788610000000    -0.0737585  
C100     C      0.872790000000     0.386160000000     0.834690000000     0.0363473  
C101     C      0.866740000000     0.367160000000     0.858290000000    -0.134028   
C102     C      0.860670000000     0.348120000000     0.834820000000     0.0363509  
C103     C      0.866710000000     0.366990000000     0.715860000000     0.0251459  
C104     C      0.872880000000     0.347980000000     0.692240000000    -0.0738592  
C105     C      0.872710000000     0.347880000000     0.646160000000     0.0364976  
C106     C      0.866660000000     0.366880000000     0.622580000000    -0.134292   
C107     C      0.860610000000     0.385920000000     0.646050000000     0.03654    
C108     C      0.860490000000     0.385940000000     0.692110000000    -0.0740604  
C109     C      0.860540000000     0.385940000000     0.192150000000    -0.074011   
C110     C      0.866770000000     0.366980000000     0.215860000000     0.02511    
C111     C      0.872930000000     0.347980000000     0.192210000000    -0.0737668  
C112     C      0.872730000000     0.347890000000     0.146130000000     0.0363741  
C113     C      0.866660000000     0.366900000000     0.122580000000    -0.134118   
C114     C      0.860620000000     0.385940000000     0.146080000000     0.0363957  
C115     C      0.866820000000     0.367040000000     0.265000000000     0.0251111  
C116     C      0.873030000000     0.386040000000     0.288620000000    -0.07383    
C117     C      0.872910000000     0.386120000000     0.334700000000     0.0365377  
C118     C      0.866870000000     0.367120000000     0.358290000000    -0.134334   
C119     C      0.860800000000     0.348080000000     0.334820000000     0.0364898  
C120     C      0.860640000000     0.348080000000     0.288760000000    -0.0740154  
C121     C      0.967740000000     0.385990000000     0.503870000000    -0.0739415  
C122     C      0.979640000000     0.367010000000     0.491660000000     0.0251773  
C123     C      0.967830000000     0.348030000000     0.479090000000    -0.0739619  
C124     C      0.944770000000     0.348000000000     0.479030000000     0.0365467  
C125     C      0.932950000000     0.367020000000     0.490970000000    -0.134366   
C126     C      0.944690000000     0.386030000000     0.503240000000     0.0366107  
C127     C      0.004230000000     0.367010000000     0.492020000000     0.0251398  
C128     C      0.016130000000     0.385990000000     0.479800000000    -0.0738426  
C129     C      0.039180000000     0.386030000000     0.480400000000     0.036509   
C130     C      0.050920000000     0.367010000000     0.492670000000    -0.134323   
C131     C      0.039100000000     0.348000000000     0.504630000000     0.0365483  
C132     C      0.016040000000     0.348040000000     0.504590000000    -0.0739137  
C133     C      0.110870000000     0.347950000000     0.791260000000    -0.0738096  
C134     C      0.117050000000     0.366960000000     0.767630000000     0.0250454  
C135     C      0.123270000000     0.385910000000     0.791390000000    -0.0739178  
C136     C      0.123160000000     0.385900000000     0.837450000000     0.0364166  
C137     C      0.117100000000     0.366860000000     0.860920000000    -0.134182   
C138     C      0.111040000000     0.347860000000     0.837340000000     0.0364395  
C139     C      0.117040000000     0.367030000000     0.718500000000     0.0251318  
C140     C      0.123240000000     0.348080000000     0.694740000000    -0.073973   
C141     C      0.123100000000     0.348080000000     0.648680000000     0.0364087  
C142     C      0.117040000000     0.367130000000     0.625210000000    -0.134288   
C143     C      0.111000000000     0.386130000000     0.648800000000     0.0365525  
C144     C      0.110850000000     0.386040000000     0.694880000000    -0.0738972  
C145     C      0.110780000000     0.386010000000     0.194880000000    -0.0737585  
C146     C      0.116980000000     0.367010000000     0.218500000000     0.0250928  
C147     C      0.123170000000     0.348050000000     0.194740000000    -0.0740073  
C148     C      0.123010000000     0.348050000000     0.148680000000     0.0364082  
C149     C      0.116940000000     0.367090000000     0.125210000000    -0.134119   
C150     C      0.110900000000     0.386100000000     0.148800000000     0.0363756  
C151     C      0.117020000000     0.366950000000     0.267630000000     0.0250584  
C152     C      0.123260000000     0.385900000000     0.291360000000    -0.0739362  
C153     C      0.123170000000     0.385900000000     0.337420000000     0.0363938  
C154     C      0.117130000000     0.366860000000     0.360920000000    -0.134195   
C155     C      0.111050000000     0.347860000000     0.337360000000     0.0364328  
C156     C      0.110860000000     0.347950000000     0.291290000000    -0.0737536  
C157     C      0.016040000000     0.385950000000     0.979680000000    -0.0738741  
C158     C      0.004140000000     0.366970000000     0.991890000000     0.0250458  
C159     C      0.015950000000     0.347990000000     0.004460000000    -0.0737558  
C160     C      0.039010000000     0.347960000000     0.004520000000     0.0365815  
C161     C      0.050830000000     0.366980000000     0.992580000000    -0.134404   
C162     C      0.039100000000     0.385990000000     0.980300000000     0.0365622  
C163     C      0.979550000000     0.366980000000     0.991530000000     0.0250617  
C164     C      0.967660000000     0.385960000000     0.003760000000    -0.0737857  
C165     C      0.944610000000     0.386010000000     0.003150000000     0.0365761  
C166     C      0.932870000000     0.367000000000     0.990870000000    -0.134161   
C167     C      0.944680000000     0.347970000000     0.978910000000     0.0363522  
C168     C      0.967740000000     0.348000000000     0.978970000000    -0.0738318  
C169     C      0.717930000000     0.359870000000     0.452860000000    -0.0745185  
C170     C      0.729720000000     0.366930000000     0.490140000000     0.0252226  
C171     C      0.718050000000     0.373920000000     0.527600000000    -0.0746347  
C172     C      0.695000000000     0.373690000000     0.527930000000     0.036683   
C173     C      0.683160000000     0.366800000000     0.490520000000    -0.134518   
C174     C      0.694870000000     0.359990000000     0.452900000000     0.0367226  
C175     C      0.754150000000     0.366960000000     0.490000000000     0.0253253  
C176     C      0.765890000000     0.348180000000     0.476480000000    -0.074579   
C177     C      0.788950000000     0.348120000000     0.476870000000     0.0367635  
C178     C      0.800710000000     0.366990000000     0.490070000000    -0.134498   
C179     C      0.788920000000     0.385850000000     0.503190000000     0.0368445  
C180     C      0.765860000000     0.385770000000     0.503510000000    -0.0746227  
C181     C      0.610670000000     0.467630000000     0.453320000000    -0.0738061  
C182     C      0.616780000000     0.479430000000     0.491390000000     0.0251329  
C183     C      0.623000000000     0.467510000000     0.529210000000    -0.0740791  
C184     C      0.622940000000     0.444470000000     0.529080000000     0.0366537  
C185     C      0.616960000000     0.432740000000     0.490950000000    -0.134376   
C186     C      0.610900000000     0.444560000000     0.453020000000     0.0365224  
C187     C      0.616740000000     0.504020000000     0.491630000000     0.0251544  
C188     C      0.622970000000     0.515950000000     0.453850000000    -0.0740037  
C189     C      0.622880000000     0.538990000000     0.454000000000     0.0365707  
C190     C      0.616830000000     0.550700000000     0.492110000000    -0.1343     
C191     C      0.610740000000     0.538860000000     0.529990000000     0.03651    
C192     C      0.610550000000     0.515790000000     0.529670000000    -0.073805   
C193     C      0.717810000000     0.360140000000     0.953330000000    -0.0745328  
C194     C      0.729630000000     0.367170000000     0.990590000000     0.0251341  
C195     C      0.717990000000     0.374220000000     0.028050000000    -0.0745125  
C196     C      0.694940000000     0.374060000000     0.028400000000     0.0367683  
C197     C      0.683070000000     0.367210000000     0.991010000000    -0.134541   
C198     C      0.694750000000     0.360340000000     0.953400000000     0.0367066  
C199     C      0.754060000000     0.367150000000     0.990390000000     0.0251554  
C200     C      0.765760000000     0.348340000000     0.976850000000    -0.0745554  
C201     C      0.788820000000     0.348250000000     0.977150000000     0.0367617  
C202     C      0.800620000000     0.367100000000     0.990290000000    -0.134512   
C203     C      0.788880000000     0.385990000000     0.003440000000     0.0368114  
C204     C      0.765820000000     0.385940000000     0.003840000000    -0.0743929  
C205     C      0.611100000000     0.468360000000     0.953570000000    -0.0737785  
C206     C      0.617270000000     0.480150000000     0.991620000000     0.0250168  
C207     C      0.623440000000     0.468220000000     0.029450000000    -0.0739198  
C208     C      0.623270000000     0.445170000000     0.029360000000     0.0366248  
C209     C      0.617200000000     0.433450000000     0.991270000000    -0.134386   
C210     C      0.611210000000     0.445290000000     0.953320000000     0.036489   
C211     C      0.617300000000     0.504740000000     0.991840000000     0.0250409  
C212     C      0.623510000000     0.516650000000     0.954020000000    -0.0739905  
C213     C      0.623370000000     0.539700000000     0.954080000000     0.0365067  
C214     C      0.617300000000     0.551430000000     0.992150000000    -0.134266   
C215     C      0.611290000000     0.539610000000     0.030110000000     0.036528   
C216     C      0.611150000000     0.516540000000     0.029880000000    -0.0736913  
C217     C      0.516180000000     0.611210000000     0.453390000000    -0.0737719  
C218     C      0.504360000000     0.617340000000     0.491420000000     0.025138   
C219     C      0.516250000000     0.623530000000     0.529290000000    -0.0740795  
C220     C      0.539300000000     0.623390000000     0.529250000000     0.03651    
C221     C      0.551050000000     0.617340000000     0.491190000000    -0.134091   
C222     C      0.539240000000     0.611350000000     0.453190000000     0.0363832  
C223     C      0.479760000000     0.617310000000     0.491610000000     0.0251128  
C224     C      0.467850000000     0.623500000000     0.453780000000    -0.0739856  
C225     C      0.444800000000     0.623330000000     0.453830000000     0.0365154  
C226     C      0.433070000000     0.617250000000     0.491890000000    -0.134173   
C227     C      0.444900000000     0.611230000000     0.529850000000     0.0364292  
C228     C      0.467960000000     0.611120000000     0.529630000000    -0.0737753  
C229     C      0.515770000000     0.610870000000     0.953530000000    -0.0738057  
C230     C      0.503970000000     0.617040000000     0.991550000000     0.0250698  
C231     C      0.515870000000     0.623280000000     0.029370000000    -0.0739518  
C232     C      0.538920000000     0.623210000000     0.029260000000     0.0366348  
C233     C      0.550650000000     0.617180000000     0.991170000000    -0.134281   
C234     C      0.538830000000     0.611090000000     0.953250000000     0.036464   
C235     C      0.479380000000     0.617050000000     0.991760000000     0.0250477  
C236     C      0.467470000000     0.623260000000     0.953930000000    -0.0740221  
C237     C      0.444430000000     0.623180000000     0.954020000000     0.0366286  
C238     C      0.432690000000     0.617170000000     0.992120000000    -0.134444   
C239     C      0.444510000000     0.611120000000     0.030060000000     0.0366697  
C240     C      0.467570000000     0.610910000000     0.029800000000    -0.0737589  
C241     C      0.217980000000     0.385800000000     0.479600000000    -0.0746062  
C242     C      0.229720000000     0.366990000000     0.493040000000     0.0252978  
C243     C      0.218000000000     0.348200000000     0.506610000000    -0.0746256  
C244     C      0.194940000000     0.348140000000     0.506330000000     0.036826   
C245     C      0.183170000000     0.367000000000     0.493200000000    -0.134385   
C246     C      0.194930000000     0.385870000000     0.480030000000     0.0368116  
C247     C      0.254150000000     0.366970000000     0.492800000000     0.0252121  
C248     C      0.265780000000     0.373990000000     0.455310000000    -0.07461    
C249     C      0.288840000000     0.373780000000     0.454900000000     0.036656   
C250     C      0.300710000000     0.366900000000     0.492260000000    -0.134465   
C251     C      0.289040000000     0.360060000000     0.529910000000     0.0366832  
C252     C      0.265980000000     0.359920000000     0.530030000000    -0.0744962  
C253     C      0.467850000000     0.372720000000     0.453080000000    -0.0737872  
C254     C      0.479640000000     0.366530000000     0.491110000000     0.0251371  
C255     C      0.467720000000     0.360330000000     0.528940000000    -0.0740993  
C256     C      0.444680000000     0.360490000000     0.528860000000     0.0366242  
C257     C      0.432950000000     0.366570000000     0.490790000000    -0.134322   
C258     C      0.444780000000     0.372590000000     0.452840000000     0.0364776  
C259     C      0.504230000000     0.366510000000     0.491330000000     0.0251618  
C260     C      0.516140000000     0.360300000000     0.453500000000    -0.0740828  
C261     C      0.539190000000     0.360410000000     0.453600000000     0.0365883  
C262     C      0.550920000000     0.366440000000     0.491700000000    -0.13432    
C263     C      0.539090000000     0.372470000000     0.529650000000     0.0365104  
C264     C      0.516030000000     0.372650000000     0.529380000000    -0.0738342  
C265     C      0.373180000000     0.515980000000     0.453180000000    -0.0738287  
C266     C      0.367010000000     0.504180000000     0.491210000000     0.0251425  
C267     C      0.360810000000     0.516090000000     0.529040000000    -0.074047   
C268     C      0.360930000000     0.539140000000     0.528950000000     0.0365931  
C269     C      0.366970000000     0.550870000000     0.490870000000    -0.134265   
C270     C      0.373010000000     0.539040000000     0.452930000000     0.0365218  
C271     C      0.366990000000     0.479590000000     0.491410000000     0.0251456  
C272     C      0.360760000000     0.467690000000     0.453580000000    -0.0740684  
C273     C      0.360840000000     0.444640000000     0.453670000000     0.036579   
C274     C      0.366860000000     0.432900000000     0.491760000000    -0.134332   
C275     C      0.372920000000     0.444710000000     0.529700000000     0.0365336  
C276     C      0.373130000000     0.467780000000     0.529450000000    -0.0738353  
C277     C      0.217890000000     0.385800000000     0.979710000000    -0.0745104  
C278     C      0.229630000000     0.366990000000     0.993150000000     0.0251525  
C279     C      0.217910000000     0.348190000000     0.006700000000    -0.0744755  
C280     C      0.194850000000     0.348120000000     0.006400000000     0.0368593  
C281     C      0.183080000000     0.366990000000     0.993270000000    -0.134515   
C282     C      0.194840000000     0.385870000000     0.980120000000     0.0367553  
C283     C      0.254060000000     0.366970000000     0.992920000000     0.0251481  
C284     C      0.265690000000     0.374000000000     0.955440000000    -0.07461    
C285     C      0.288750000000     0.373810000000     0.955050000000     0.0366342  
C286     C      0.300620000000     0.366940000000     0.992420000000    -0.134489   
C287     C      0.288950000000     0.360080000000     0.030050000000     0.0367519  
C288     C      0.265890000000     0.359920000000     0.030150000000    -0.0744086  
C289     C      0.467650000000     0.360980000000     0.029310000000    -0.07392    
C290     C      0.479550000000     0.367230000000     0.991490000000     0.0250062  
C291     C      0.467730000000     0.373370000000     0.953450000000    -0.073792   
C292     C      0.444670000000     0.373130000000     0.953190000000     0.0365263  
C293     C      0.432860000000     0.367040000000     0.991120000000    -0.134422   
C294     C      0.444600000000     0.361030000000     0.029210000000     0.0366824  
C295     C      0.504140000000     0.367300000000     0.991710000000     0.02507    
C296     C      0.515920000000     0.373480000000     0.029760000000    -0.0737197  
C297     C      0.538990000000     0.373340000000     0.030030000000     0.0365866  
C298     C      0.550830000000     0.367320000000     0.992100000000    -0.134368   
C299     C      0.539120000000     0.361280000000     0.954000000000     0.0366169  
C300     C      0.516070000000     0.361120000000     0.953890000000    -0.0740634  
C301     C      0.372700000000     0.468010000000     0.029790000000    -0.0737018  
C302     C      0.366520000000     0.479800000000     0.991760000000     0.0250603  
C303     C      0.360320000000     0.467890000000     0.953930000000    -0.0740815  
C304     C      0.360480000000     0.444840000000     0.954020000000     0.0365778  
C305     C      0.366540000000     0.433120000000     0.992090000000    -0.134194   
C306     C      0.372560000000     0.444940000000     0.030040000000     0.0365132  
C307     C      0.366490000000     0.504400000000     0.991550000000     0.0250994  
C308     C      0.360280000000     0.516300000000     0.029380000000    -0.0739893  
C309     C      0.360380000000     0.539350000000     0.029290000000     0.0366996  
C310     C      0.366420000000     0.551080000000     0.991210000000    -0.134409   
C311     C      0.372460000000     0.539260000000     0.953260000000     0.0365526  
C312     C      0.372640000000     0.516200000000     0.953510000000    -0.0738629  
C313     C      0.636480000000     0.765750000000     0.477140000000    -0.0745147  
C314     C      0.617790000000     0.753940000000     0.490980000000     0.0252256  
C315     C      0.598970000000     0.765600000000     0.504630000000    -0.07459    
C316     C      0.598770000000     0.788650000000     0.504110000000     0.0367188  
C317     C      0.617530000000     0.800510000000     0.490620000000    -0.134531   
C318     C      0.636420000000     0.788820000000     0.477320000000     0.03671    
C319     C      0.617880000000     0.729510000000     0.491220000000     0.025198   
C320     C      0.624840000000     0.717700000000     0.453900000000    -0.0744771  
C321     C      0.624570000000     0.694630000000     0.453900000000     0.0365623  
C322     C      0.617710000000     0.682950000000     0.491510000000    -0.134255   
C323     C      0.610970000000     0.694810000000     0.529000000000     0.0365276  
C324     C      0.610890000000     0.717860000000     0.528710000000    -0.0745803  
C325     C      0.634690000000     0.766290000000     0.975710000000    -0.0746394  
C326     C      0.615890000000     0.754650000000     0.989490000000     0.0251772  
C327     C      0.597200000000     0.766470000000     0.003270000000    -0.0743509  
C328     C      0.597240000000     0.789530000000     0.002990000000     0.0367838  
C329     C      0.616140000000     0.801210000000     0.989640000000    -0.134666   
C330     C      0.634880000000     0.789340000000     0.976120000000     0.0367896  
C331     C      0.615850000000     0.730230000000     0.989670000000     0.0250948  
C332     C      0.622840000000     0.718410000000     0.952380000000    -0.0745278  
C333     C      0.622810000000     0.695350000000     0.952560000000     0.0366901  
C334     C      0.616160000000     0.683670000000     0.990320000000    -0.134465   
C335     C      0.609290000000     0.695530000000     0.027710000000     0.0366929  
C336     C      0.608970000000     0.718580000000     0.027250000000    -0.0744378  
C337     C      0.597970000000     0.860770000000     0.692070000000    -0.0740616  
C338     C      0.616910000000     0.867060000000     0.715750000000     0.0251497  
C339     C      0.635920000000     0.873180000000     0.692060000000    -0.0738846  
C340     C      0.636020000000     0.872870000000     0.645990000000     0.0365738  
C341     C      0.617030000000     0.866740000000     0.622470000000    -0.134301   
C342     C      0.597990000000     0.860750000000     0.646010000000     0.0365541  
C343     C      0.616840000000     0.867210000000     0.764890000000     0.0250959  
C344     C      0.597830000000     0.873450000000     0.788440000000    -0.073855   
C345     C      0.597730000000     0.873400000000     0.834520000000     0.0364902  
C346     C      0.616720000000     0.867400000000     0.858180000000    -0.134146   
C347     C      0.635780000000     0.861310000000     0.834770000000     0.0364007  
C348     C      0.635800000000     0.861080000000     0.788710000000    -0.0740022  
C349     C      0.597860000000     0.873090000000     0.192070000000    -0.0739415  
C350     C      0.616820000000     0.866830000000     0.215750000000     0.0251049  
C351     C      0.635810000000     0.860690000000     0.192060000000    -0.0738731  
C352     C      0.635890000000     0.860940000000     0.145980000000     0.0364695  
C353     C      0.616890000000     0.867050000000     0.122460000000    -0.134282   
C354     C      0.597850000000     0.873060000000     0.146010000000     0.0364611  
C355     C      0.616780000000     0.866750000000     0.264890000000     0.0251265  
C356     C      0.635740000000     0.872930000000     0.288630000000    -0.074004   
C357     C      0.635760000000     0.872750000000     0.334690000000     0.0365224  
C358     C      0.616730000000     0.866670000000     0.358180000000    -0.134333   
C359     C      0.597720000000     0.860640000000     0.334600000000     0.036529   
C360     C      0.597780000000     0.860540000000     0.288520000000    -0.073914   
C361     C      0.635810000000     0.217750000000     0.506130000000    -0.0745817  
C362     C      0.617040000000     0.229520000000     0.492570000000     0.0252893  
C363     C      0.598200000000     0.217830000000     0.479140000000    -0.0745971  
C364     C      0.598070000000     0.194770000000     0.479570000000     0.0367834  
C365     C      0.616910000000     0.182960000000     0.492750000000    -0.1344     
C366     C      0.635820000000     0.194690000000     0.505860000000     0.0366903  
C367     C      0.617110000000     0.253940000000     0.492370000000     0.0251631  
C368     C      0.624160000000     0.265750000000     0.529630000000    -0.0744458  
C369     C      0.624000000000     0.288810000000     0.529580000000     0.036653   
C370     C      0.617140000000     0.300500000000     0.491970000000    -0.134474   
C371     C      0.610280000000     0.288650000000     0.454560000000     0.0366629  
C372     C      0.610090000000     0.265600000000     0.454900000000    -0.0745823  
C373     C      0.597250000000     0.015990000000     0.479560000000    -0.0738241  
C374     C      0.616180000000     0.004030000000     0.491820000000     0.0251519  
C375     C      0.635170000000     0.015780000000     0.504580000000    -0.0739647  
C376     C      0.635280000000     0.038830000000     0.504670000000     0.0365495  
C377     C      0.616330000000     0.050720000000     0.492590000000    -0.134284   
C378     C      0.597280000000     0.039050000000     0.480220000000     0.0364584  
C379     C      0.616160000000     0.979440000000     0.491190000000     0.0251769  
C380     C      0.597170000000     0.967490000000     0.503130000000    -0.0737668  
C381     C      0.597180000000     0.944420000000     0.502440000000     0.0364989  
C382     C      0.616270000000     0.932750000000     0.490360000000    -0.134312   
C383     C      0.635270000000     0.944640000000     0.478550000000     0.0366765  
C384     C      0.635180000000     0.967680000000     0.478670000000    -0.074013   
C385     C      0.623730000000     0.266460000000     0.030360000000    -0.074376   
C386     C      0.616690000000     0.254640000000     0.993100000000     0.0250548  
C387     C      0.609680000000     0.266290000000     0.955620000000    -0.0744715  
C388     C      0.609890000000     0.289350000000     0.955240000000     0.0365038  
C389     C      0.616780000000     0.301200000000     0.992620000000    -0.134306   
C390     C      0.623590000000     0.289520000000     0.030260000000     0.0367165  
C391     C      0.616700000000     0.230220000000     0.993290000000     0.0251792  
C392     C      0.635520000000     0.218530000000     0.006840000000    -0.0744868  
C393     C      0.635640000000     0.195470000000     0.006480000000     0.0368709  
C394     C      0.616810000000     0.183650000000     0.993260000000    -0.134512   
C395     C      0.597910000000     0.195380000000     0.980120000000     0.0367377  
C396     C      0.597930000000     0.218440000000     0.979770000000    -0.0745377  
C397     C      0.598060000000     0.123720000000     0.791150000000    -0.0740822  
C398     C      0.616980000000     0.117440000000     0.767370000000     0.025107   
C399     C      0.636020000000     0.111320000000     0.790970000000    -0.0738276  
C400     C      0.636170000000     0.111600000000     0.837050000000     0.0364642  
C401     C      0.617190000000     0.117700000000     0.860660000000    -0.134333   
C402     C      0.598130000000     0.123710000000     0.837210000000     0.0365838  
C403     C      0.616850000000     0.117290000000     0.718230000000     0.0251456  
C404     C      0.597800000000     0.111060000000     0.694780000000    -0.0738334  
C405     C      0.597650000000     0.111080000000     0.648700000000     0.0365151  
C406     C      0.616630000000     0.117040000000     0.624950000000    -0.134403   
C407     C      0.635700000000     0.123140000000     0.648260000000     0.036622   
C408     C      0.635770000000     0.123400000000     0.694310000000    -0.0740818  
C409     C      0.597830000000     0.110970000000     0.194460000000    -0.073919   
C410     C      0.616800000000     0.117110000000     0.218230000000     0.0251422  
C411     C      0.635790000000     0.123380000000     0.194630000000    -0.0740471  
C412     C      0.635840000000     0.123340000000     0.148570000000     0.0365155  
C413     C      0.616840000000     0.117320000000     0.124940000000    -0.134278   
C414     C      0.597810000000     0.111210000000     0.148380000000     0.0365432  
C415     C      0.616790000000     0.117020000000     0.267370000000     0.0250813  
C416     C      0.597810000000     0.123200000000     0.291070000000    -0.0740042  
C417     C      0.597770000000     0.123010000000     0.337130000000     0.0364169  
C418     C      0.616780000000     0.116910000000     0.360660000000    -0.134196   
C419     C      0.635800000000     0.110870000000     0.337120000000     0.0364922  
C420     C      0.635770000000     0.110780000000     0.291040000000    -0.0738488  
C421     C      0.636510000000     0.968250000000     0.979370000000    -0.0738238  
C422     C      0.617510000000     0.980130000000     0.991590000000     0.0251282  
C423     C      0.598480000000     0.968300000000     0.003710000000    -0.0739385  
C424     C      0.598380000000     0.945250000000     0.003200000000     0.0368073  
C425     C      0.617390000000     0.933440000000     0.991150000000    -0.134508   
C426     C      0.636490000000     0.945190000000     0.979440000000     0.0365992  
C427     C      0.617500000000     0.004720000000     0.991660000000     0.0250181  
C428     C      0.636420000000     0.016600000000     0.004320000000    -0.0737904  
C429     C      0.636380000000     0.039660000000     0.004290000000     0.0366435  
C430     C      0.617350000000     0.051410000000     0.992150000000    -0.134398   
C431     C      0.598410000000     0.039610000000     0.979690000000     0.0365583  
C432     C      0.598520000000     0.016560000000     0.979150000000    -0.0738682  
C433     C      0.218040000000     0.598010000000     0.503130000000    -0.0746027  
C434     C      0.229830000000     0.616770000000     0.489600000000     0.0252763  
C435     C      0.218160000000     0.635590000000     0.475990000000    -0.0745721  
C436     C      0.195100000000     0.635730000000     0.476320000000     0.0367879  
C437     C      0.183270000000     0.616920000000     0.489560000000    -0.134467   
C438     C      0.194980000000     0.598020000000     0.502750000000     0.0367666  
C439     C      0.254260000000     0.616740000000     0.489810000000     0.0252142  
C440     C      0.265890000000     0.609730000000     0.527310000000    -0.074548   
C441     C      0.288950000000     0.609940000000     0.527720000000     0.0366163  
C442     C      0.300820000000     0.616810000000     0.490350000000    -0.13444    
C443     C      0.289150000000     0.623630000000     0.452690000000     0.0366919  
C444     C      0.266090000000     0.623770000000     0.452560000000    -0.0745639  
C445     C      0.217770000000     0.598370000000     0.003690000000    -0.074515   
C446     C      0.229470000000     0.617180000000     0.990150000000     0.0251761  
C447     C      0.217710000000     0.635930000000     0.976450000000    -0.0745331  
C448     C      0.194650000000     0.635940000000     0.976680000000     0.0367579  
C449     C      0.182920000000     0.617060000000     0.989910000000    -0.134615   
C450     C      0.194720000000     0.598250000000     0.003230000000     0.0370333  
C451     C      0.253900000000     0.617250000000     0.990400000000     0.0251673  
C452     C      0.265540000000     0.610270000000     0.027910000000    -0.0745675  
C453     C      0.288590000000     0.610460000000     0.028290000000     0.0368482  
C454     C      0.300460000000     0.617280000000     0.990880000000    -0.134679   
C455     C      0.288780000000     0.624100000000     0.953220000000     0.0367272  
C456     C      0.265720000000     0.624260000000     0.953130000000    -0.0745257  
C457     C      0.110790000000     0.597460000000     0.788080000000    -0.0737729  
C458     C      0.117080000000     0.616430000000     0.764450000000     0.0251228  
C459     C      0.123390000000     0.635350000000     0.788210000000    -0.0741039  
C460     C      0.123180000000     0.635370000000     0.834250000000     0.0366161  
C461     C      0.116970000000     0.616390000000     0.857740000000    -0.134302   
C462     C      0.110880000000     0.597390000000     0.834170000000     0.0364234  
C463     C      0.117070000000     0.616540000000     0.715310000000     0.025103   
C464     C      0.123130000000     0.597580000000     0.691410000000    -0.0738819  
C465     C      0.123050000000     0.597690000000     0.645340000000     0.0364805  
C466     C      0.117190000000     0.616840000000     0.622010000000    -0.134204   
C467     C      0.111250000000     0.635820000000     0.645750000000     0.036588   
C468     C      0.111040000000     0.635630000000     0.691810000000    -0.0739     
C469     C      0.123260000000     0.598580000000     0.191760000000    -0.0740067  
C470     C      0.116940000000     0.617560000000     0.215310000000     0.0250935  
C471     C      0.110670000000     0.636470000000     0.191470000000    -0.0738025  
C472     C      0.110800000000     0.636420000000     0.145390000000     0.0364931  
C473     C      0.116920000000     0.617370000000     0.122020000000    -0.134277   
C474     C      0.123100000000     0.598440000000     0.145710000000     0.0364806  
C475     C      0.116880000000     0.617600000000     0.264440000000     0.0251221  
C476     C      0.110770000000     0.598590000000     0.288110000000    -0.0739378  
C477     C      0.110940000000     0.598520000000     0.334170000000     0.0366273  
C478     C      0.116940000000     0.617540000000     0.357740000000    -0.134188   
C479     C      0.122860000000     0.636620000000     0.334240000000     0.0364258  
C480     C      0.122970000000     0.636610000000     0.288160000000    -0.0739098  
C481     C      0.765900000000     0.634820000000     0.507960000000    -0.0746651  
C482     C      0.754270000000     0.616020000000     0.494100000000     0.0252182  
C483     C      0.766110000000     0.597340000000     0.480270000000    -0.0744939  
C484     C      0.789170000000     0.597410000000     0.480570000000     0.0366509  
C485     C      0.800830000000     0.616300000000     0.494000000000    -0.134377   
C486     C      0.788950000000     0.635020000000     0.507570000000     0.0367265  
C487     C      0.729850000000     0.615960000000     0.493900000000     0.0252307  
C488     C      0.718010000000     0.622900000000     0.531200000000    -0.0745775  
C489     C      0.694960000000     0.622860000000     0.530990000000     0.0367686  
C490     C      0.683290000000     0.616230000000     0.493200000000    -0.134449   
C491     C      0.695170000000     0.609400000000     0.455800000000     0.0366687  
C492     C      0.718220000000     0.609090000000     0.456280000000    -0.0746406  
C493     C      0.967780000000     0.636710000000     0.479510000000    -0.0737489  
C494     C      0.979750000000     0.617790000000     0.491840000000     0.0251233  
C495     C      0.968010000000     0.598840000000     0.504820000000    -0.0739525  
C496     C      0.944970000000     0.598740000000     0.505010000000     0.0365634  
C497     C      0.933060000000     0.617670000000     0.492810000000    -0.134129   
C498     C      0.944720000000     0.636690000000     0.480260000000     0.0364436  
C499     C      0.004340000000     0.617770000000     0.491160000000     0.0252421  
C500     C      0.016080000000     0.598720000000     0.478740000000    -0.0739855  
C501     C      0.039130000000     0.598600000000     0.478620000000     0.0367633  
C502     C      0.051020000000     0.617600000000     0.490330000000    -0.134426   
C503     C      0.039360000000     0.636710000000     0.502350000000     0.0367177  
C504     C      0.016310000000     0.636760000000     0.503030000000    -0.0739483  
C505     C      0.765540000000     0.599290000000     0.979070000000    -0.0746757  
C506     C      0.753890000000     0.618100000000     0.992840000000     0.0251763  
C507     C      0.765710000000     0.636750000000     0.006850000000    -0.0744464  
C508     C      0.788780000000     0.636670000000     0.006710000000     0.0368412  
C509     C      0.800460000000     0.617800000000     0.993270000000    -0.134617   
C510     C      0.788590000000     0.599080000000     0.979620000000     0.0367748  
C511     C      0.729460000000     0.618220000000     0.992530000000     0.0250825  
C512     C      0.717830000000     0.611290000000     0.954960000000    -0.0745816  
C513     C      0.694780000000     0.611390000000     0.954610000000     0.0366035  
C514     C      0.682900000000     0.618080000000     0.992090000000    -0.134398   
C515     C      0.694560000000     0.624890000000     0.029770000000     0.0366935  
C516     C      0.717620000000     0.625130000000     0.029850000000    -0.074373   
C517     C      0.860940000000     0.636660000000     0.694860000000    -0.0739441  
C518     C      0.866930000000     0.617690000000     0.718770000000     0.0251394  
C519     C      0.873090000000     0.598620000000     0.695290000000    -0.0739822  
C520     C      0.873030000000     0.598470000000     0.649230000000     0.0366071  
C521     C      0.867110000000     0.617460000000     0.625480000000    -0.13418    
C522     C      0.861170000000     0.636590000000     0.648790000000     0.0364896  
C523     C      0.866720000000     0.617730000000     0.767900000000     0.0250955  
C524     C      0.872920000000     0.636680000000     0.791710000000    -0.0738013  
C525     C      0.872650000000     0.636700000000     0.837790000000     0.0364782  
C526     C      0.866470000000     0.617680000000     0.861190000000    -0.13423    
C527     C      0.860340000000     0.598720000000     0.837530000000     0.0365234  
C528     C      0.860310000000     0.598790000000     0.791480000000    -0.0740709  
C529     C      0.872920000000     0.597520000000     0.291700000000    -0.0738729  
C530     C      0.866620000000     0.616440000000     0.267900000000     0.0250633  
C531     C      0.860290000000     0.635400000000     0.291480000000    -0.0739459  
C532     C      0.860440000000     0.635520000000     0.337540000000     0.0363768  
C533     C      0.866660000000     0.616590000000     0.361200000000    -0.134234   
C534     C      0.872800000000     0.597560000000     0.337780000000     0.0363731  
C535     C      0.866720000000     0.616430000000     0.218770000000     0.0250753  
C536     C      0.872880000000     0.635450000000     0.195190000000    -0.0739682  
C537     C      0.872750000000     0.635560000000     0.149140000000     0.0364461  
C538     C      0.866760000000     0.616560000000     0.125480000000    -0.134053   
C539     C      0.860800000000     0.597460000000     0.148880000000     0.03628    
C540     C      0.860650000000     0.597440000000     0.194970000000    -0.0737976  
C541     C      0.015730000000     0.635360000000     0.978300000000    -0.073781   
C542     C      0.003980000000     0.616380000000     0.991140000000     0.0249863  
C543     C      0.015950000000     0.597450000000     0.003390000000    -0.0737991  
C544     C      0.039000000000     0.597480000000     0.002650000000     0.0365858  
C545     C      0.050670000000     0.616520000000     0.990210000000    -0.134288   
C546     C      0.038780000000     0.635470000000     0.978130000000     0.03644    
C547     C      0.979390000000     0.616380000000     0.991870000000     0.0251308  
C548     C      0.967660000000     0.635390000000     0.004470000000    -0.0738807  
C549     C      0.944610000000     0.635490000000     0.004710000000     0.0366769  
C550     C      0.932710000000     0.616500000000     0.992940000000    -0.134207   
C551     C      0.944360000000     0.597410000000     0.980770000000     0.0364792  
C552     C      0.967420000000     0.597390000000     0.979970000000    -0.0738342  
C553     C      0.359760000000     0.265910000000     0.452820000000    -0.0745658  
C554     C      0.366810000000     0.254100000000     0.490070000000     0.0252605  
C555     C      0.373850000000     0.265740000000     0.527530000000    -0.074637   
C556     C      0.373660000000     0.288790000000     0.527900000000     0.0366763  
C557     C      0.366780000000     0.300660000000     0.490520000000    -0.134499   
C558     C      0.359920000000     0.288970000000     0.452910000000     0.0367306  
C559     C      0.366830000000     0.229670000000     0.489860000000     0.0252754  
C560     C      0.348030000000     0.217950000000     0.476340000000    -0.074591   
C561     C      0.347960000000     0.194890000000     0.476660000000     0.0367681  
C562     C      0.366830000000     0.183110000000     0.489800000000    -0.134507   
C563     C      0.385700000000     0.194880000000     0.502920000000     0.0368858  
C564     C      0.385640000000     0.217930000000     0.503300000000    -0.0746017  
C565     C      0.385700000000     0.218140000000     0.003420000000    -0.0744207  
C566     C      0.366900000000     0.229890000000     0.989970000000     0.0251113  
C567     C      0.348100000000     0.218170000000     0.976410000000    -0.0744458  
C568     C      0.348010000000     0.195110000000     0.976710000000     0.0366372  
C569     C      0.366870000000     0.183330000000     0.989860000000    -0.134315   
C570     C      0.385750000000     0.195080000000     0.003020000000     0.036776   
C571     C      0.366890000000     0.254310000000     0.990180000000     0.0251353  
C572     C      0.373920000000     0.265950000000     0.027660000000    -0.0744925  
C573     C      0.373720000000     0.289000000000     0.028050000000     0.0368034  
C574     C      0.366850000000     0.300870000000     0.990680000000    -0.134617   
C575     C      0.360000000000     0.289200000000     0.953050000000     0.0367476  
C576     C      0.359850000000     0.266140000000     0.952940000000    -0.0745287  
C577     C      0.385880000000     0.110960000000     0.788250000000    -0.0738025  
C578     C      0.366870000000     0.117140000000     0.764620000000     0.0250465  
C579     C      0.347920000000     0.123360000000     0.788370000000    -0.0739425  
C580     C      0.347930000000     0.123230000000     0.834430000000     0.036427   
C581     C      0.366970000000     0.117170000000     0.857910000000    -0.134258   
C582     C      0.385970000000     0.111120000000     0.834330000000     0.0364738  
C583     C      0.366810000000     0.117140000000     0.715480000000     0.0251675  
C584     C      0.385750000000     0.123340000000     0.691720000000    -0.0740632  
C585     C      0.385740000000     0.123210000000     0.645660000000     0.0365542  
C586     C      0.366700000000     0.117160000000     0.622190000000    -0.134373   
C587     C      0.347700000000     0.111110000000     0.645790000000     0.0365313  
C588     C      0.347790000000     0.110960000000     0.691870000000    -0.0738935  
C589     C      0.347870000000     0.123250000000     0.288400000000    -0.0740625  
C590     C      0.366830000000     0.117070000000     0.264620000000     0.0251215  
C591     C      0.385830000000     0.110860000000     0.288220000000    -0.0738172  
C592     C      0.385920000000     0.110960000000     0.334300000000     0.0365141  
C593     C      0.366920000000     0.116990000000     0.357910000000    -0.134331   
C594     C      0.347880000000     0.123070000000     0.334450000000     0.0365309  
C595     C      0.366770000000     0.117140000000     0.215480000000     0.025092   
C596     C      0.347770000000     0.110990000000     0.191820000000    -0.0737945  
C597     C      0.347680000000     0.111210000000     0.145740000000     0.0364384  
C598     C      0.366680000000     0.117290000000     0.122190000000    -0.134088   
C599     C      0.385720000000     0.123320000000     0.145710000000     0.0364082  
C600     C      0.385730000000     0.123390000000     0.191770000000    -0.0740147  
C601     C      0.385650000000     0.765850000000     0.479480000000    -0.0745514  
C602     C      0.366850000000     0.754100000000     0.492910000000     0.0252576  
C603     C      0.348040000000     0.765810000000     0.506470000000    -0.0745984  
C604     C      0.347970000000     0.788870000000     0.506200000000     0.0367015  
C605     C      0.366830000000     0.800660000000     0.493070000000    -0.134249   
C606     C      0.385710000000     0.788900000000     0.479910000000     0.0367203  
C607     C      0.366840000000     0.729670000000     0.492670000000     0.0252145  
C608     C      0.373880000000     0.718040000000     0.455190000000    -0.0745809  
C609     C      0.373710000000     0.694990000000     0.454790000000     0.0366246  
C610     C      0.366840000000     0.683110000000     0.492160000000    -0.134438   
C611     C      0.359970000000     0.694780000000     0.529790000000     0.0366659  
C612     C      0.359790000000     0.717840000000     0.529900000000    -0.0745213  
C613     C      0.347820000000     0.967780000000     0.504330000000    -0.0739559  
C614     C      0.366800000000     0.979590000000     0.491740000000     0.0251987  
C615     C      0.385780000000     0.967690000000     0.479530000000    -0.0739736  
C616     C      0.385820000000     0.944640000000     0.480170000000     0.0366151  
C617     C      0.366810000000     0.932900000000     0.492470000000    -0.134319   
C618     C      0.347790000000     0.944720000000     0.504410000000     0.0365416  
C619     C      0.366800000000     0.004180000000     0.491340000000     0.0251064  
C620     C      0.347820000000     0.015990000000     0.478760000000    -0.07383    
C621     C      0.347780000000     0.039050000000     0.478670000000     0.0364349  
C622     C      0.366810000000     0.050870000000     0.490580000000    -0.134288   
C623     C      0.385820000000     0.039140000000     0.502870000000     0.0365228  
C624     C      0.385780000000     0.016080000000     0.503530000000    -0.073852   
C625     C      0.348010000000     0.766040000000     0.006720000000    -0.0744557  
C626     C      0.366810000000     0.754310000000     0.993180000000     0.0251859  
C627     C      0.385610000000     0.766040000000     0.979710000000    -0.0745492  
C628     C      0.385680000000     0.789100000000     0.980080000000     0.0368036  
C629     C      0.366810000000     0.800870000000     0.993210000000    -0.134538   
C630     C      0.347940000000     0.789100000000     0.006380000000     0.0368439  
C631     C      0.366780000000     0.729880000000     0.992990000000     0.0250966  
C632     C      0.359730000000     0.718070000000     0.030240000000    -0.0743535  
C633     C      0.359870000000     0.695010000000     0.030160000000     0.0366854  
C634     C      0.366700000000     0.683330000000     0.992530000000    -0.134306   
C635     C      0.373590000000     0.695180000000     0.955150000000     0.0365616  
C636     C      0.373800000000     0.718230000000     0.955520000000    -0.0745393  
C637     C      0.385740000000     0.860620000000     0.791260000000    -0.0741103  
C638     C      0.366790000000     0.866830000000     0.767490000000     0.0251223  
C639     C      0.347780000000     0.873010000000     0.791110000000    -0.0737964  
C640     C      0.347680000000     0.872860000000     0.837190000000     0.0364912  
C641     C      0.366680000000     0.866820000000     0.860790000000    -0.134336   
C642     C      0.385720000000     0.860760000000     0.837320000000     0.0365697  
C643     C      0.366850000000     0.866830000000     0.718360000000     0.0250563  
C644     C      0.385860000000     0.873010000000     0.694730000000    -0.0737898  
C645     C      0.385950000000     0.872850000000     0.648650000000     0.0363952  
C646     C      0.366940000000     0.866800000000     0.625070000000    -0.134193   
C647     C      0.347900000000     0.860740000000     0.648550000000     0.0364049  
C648     C      0.347900000000     0.860610000000     0.694610000000    -0.0739438  
C649     C      0.385700000000     0.860600000000     0.291210000000    -0.0739706  
C650     C      0.366760000000     0.866850000000     0.267500000000     0.0250888  
C651     C      0.347750000000     0.873000000000     0.291160000000    -0.0737434  
C652     C      0.347660000000     0.872790000000     0.337240000000     0.036439   
C653     C      0.366660000000     0.866700000000     0.360780000000    -0.134179   
C654     C      0.385700000000     0.860670000000     0.337270000000     0.0364249  
C655     C      0.366810000000     0.866920000000     0.218360000000     0.0250967  
C656     C      0.385820000000     0.873130000000     0.194760000000    -0.0738027  
C657     C      0.385910000000     0.873030000000     0.148680000000     0.036392   
C658     C      0.366900000000     0.867000000000     0.125070000000    -0.134204   
C659     C      0.347860000000     0.860930000000     0.148530000000     0.0364662  
C660     C      0.347860000000     0.860750000000     0.194580000000    -0.0739629  
C661     C      0.385780000000     0.016290000000     0.003470000000    -0.0737439  
C662     C      0.366800000000     0.004390000000     0.991250000000     0.0250384  
C663     C      0.347830000000     0.016200000000     0.978660000000    -0.0738605  
C664     C      0.347790000000     0.039260000000     0.978580000000     0.0364378  
C665     C      0.366810000000     0.051080000000     0.990530000000    -0.134297   
C666     C      0.385830000000     0.039340000000     0.002830000000     0.0365236  
C667     C      0.366790000000     0.979800000000     0.991640000000     0.0250758  
C668     C      0.385770000000     0.967900000000     0.979450000000    -0.0739122  
C669     C      0.385820000000     0.944850000000     0.980100000000     0.0364861  
C670     C      0.366800000000     0.933110000000     0.992390000000    -0.134356   
C671     C      0.347780000000     0.944940000000     0.004310000000     0.0365824  
C672     C      0.347820000000     0.967990000000     0.004220000000    -0.0737418  
H1       H      0.878190000000     0.400850000000     0.771560000000     0.0459342  
H2       H      0.877720000000     0.401050000000     0.851810000000     0.0284553  
H3       H      0.855740000000     0.333260000000     0.852030000000     0.028205   
H4       H      0.855250000000     0.333290000000     0.771850000000     0.0457953  
H5       H      0.878160000000     0.333200000000     0.709280000000     0.0459467  
H6       H      0.877640000000     0.332990000000     0.629040000000     0.0284559  
H7       H      0.855670000000     0.400790000000     0.628850000000     0.0280913  
H8       H      0.855230000000     0.400760000000     0.709040000000     0.0458435  
H9       H      0.878220000000     0.333190000000     0.209210000000     0.0459291  
H10      H      0.877640000000     0.333010000000     0.128980000000     0.0285103  
H11      H      0.855680000000     0.400800000000     0.128910000000     0.0281568  
H12      H      0.855300000000     0.400750000000     0.209100000000     0.0458895  
H13      H      0.878280000000     0.400830000000     0.271570000000     0.0459739  
H14      H      0.877840000000     0.401010000000     0.351820000000     0.0284175  
H15      H      0.855870000000     0.333220000000     0.352020000000     0.0281501  
H16      H      0.855350000000     0.333270000000     0.271840000000     0.0458321  
H17      H      0.976370000000     0.333240000000     0.468690000000     0.0459878  
H18      H      0.936220000000     0.333120000000     0.469060000000     0.0284429  
H19      H      0.936070000000     0.400910000000     0.512980000000     0.0283766  
H20      H      0.976200000000     0.400790000000     0.514530000000     0.0459593  
H21      H      0.007660000000     0.400790000000     0.469140000000     0.0459229  
H22      H      0.047800000000     0.400910000000     0.470650000000     0.028422   
H23      H      0.047650000000     0.333120000000     0.514590000000     0.0284318  
H24      H      0.007510000000     0.333240000000     0.515000000000     0.0459533  
H25      H      0.128540000000     0.400730000000     0.774460000000     0.0458211  
H26      H      0.128090000000     0.400760000000     0.854650000000     0.0281479  
H27      H      0.106110000000     0.332970000000     0.854460000000     0.0284699  
H28      H      0.105600000000     0.333170000000     0.774220000000     0.0459447  
H29      H      0.128510000000     0.333260000000     0.711660000000     0.0458056  
H30      H      0.128030000000     0.333220000000     0.631480000000     0.0281697  
H31      H      0.106070000000     0.401020000000     0.631680000000     0.0284111  
H32      H      0.105590000000     0.400820000000     0.711920000000     0.0460164  
H33      H      0.128450000000     0.333240000000     0.211650000000     0.0458488  
H34      H      0.127930000000     0.333190000000     0.131470000000     0.0281983  
H35      H      0.105970000000     0.400990000000     0.131690000000     0.0284482  
H36      H      0.105530000000     0.400800000000     0.211930000000     0.0459334  
H37      H      0.128510000000     0.400720000000     0.274410000000     0.0458084  
H38      H      0.128120000000     0.400760000000     0.354600000000     0.0281303  
H39      H      0.106140000000     0.332970000000     0.354510000000     0.0284744  
H40      H      0.105570000000     0.333160000000     0.274270000000     0.0459033  
H41      H      0.007410000000     0.333190000000     0.014860000000     0.0459486  
H42      H      0.047560000000     0.333080000000     0.014490000000     0.0284579  
H43      H      0.047720000000     0.400870000000     0.970560000000     0.0284238  
H44      H      0.007580000000     0.400750000000     0.969020000000     0.0459486  
H45      H      0.976130000000     0.400750000000     0.014420000000     0.0460073  
H46      H      0.936000000000     0.400890000000     0.012900000000     0.0284786  
H47      H      0.936120000000     0.333100000000     0.968940000000     0.0284741  
H48      H      0.976270000000     0.333200000000     0.968560000000     0.0459164  
H49      H      0.726770000000     0.379310000000     0.556850000000     0.046869   
H50      H      0.686450000000     0.379100000000     0.557360000000     0.0279875  
H51      H      0.686230000000     0.354520000000     0.423620000000     0.0282897  
H52      H      0.726570000000     0.354520000000     0.423480000000     0.0469283  
H53      H      0.757220000000     0.333420000000     0.466180000000     0.0467812  
H54      H      0.797560000000     0.333360000000     0.466440000000     0.0279654  
H55      H      0.797500000000     0.400620000000     0.513670000000     0.0279791  
H56      H      0.757170000000     0.400510000000     0.513820000000     0.0469305  
H57      H      0.628220000000     0.475960000000     0.558870000000     0.0458921  
H58      H      0.627880000000     0.435840000000     0.558760000000     0.0281217  
H59      H      0.606030000000     0.436010000000     0.423220000000     0.0283475  
H60      H      0.605400000000     0.476170000000     0.423800000000     0.0459891  
H61      H      0.628250000000     0.507510000000     0.424200000000     0.0458506  
H62      H      0.627840000000     0.547630000000     0.424360000000     0.0281599  
H63      H      0.605820000000     0.547400000000     0.559780000000     0.028358   
H64      H      0.605260000000     0.507230000000     0.559160000000     0.0459795  
H65      H      0.726750000000     0.379580000000     0.057290000000     0.0468285  
H66      H      0.686420000000     0.379520000000     0.057840000000     0.0279728  
H67      H      0.686080000000     0.354900000000     0.924130000000     0.0283072  
H68      H      0.726420000000     0.354760000000     0.923940000000     0.046926   
H69      H      0.757050000000     0.333600000000     0.966580000000     0.0467648  
H70      H      0.797390000000     0.333470000000     0.966690000000     0.0279501  
H71      H      0.797490000000     0.400740000000     0.013880000000     0.028006   
H72      H      0.757160000000     0.400700000000     0.014180000000     0.0468572  
H73      H      0.628710000000     0.476650000000     0.059100000000     0.0458494  
H74      H      0.628160000000     0.436530000000     0.059050000000     0.028136   
H75      H      0.606280000000     0.436750000000     0.923540000000     0.02834    
H76      H      0.605860000000     0.476920000000     0.924050000000     0.0459767  
H77      H      0.628770000000     0.508200000000     0.924380000000     0.0458372  
H78      H      0.628280000000     0.548320000000     0.924380000000     0.0281385  
H79      H      0.606360000000     0.548170000000     0.059870000000     0.0283578  
H80      H      0.605880000000     0.508000000000     0.059400000000     0.0459821  
H81      H      0.507800000000     0.628770000000     0.558920000000     0.0458985  
H82      H      0.547910000000     0.628280000000     0.558980000000     0.0281395  
H83      H      0.547810000000     0.606440000000     0.423440000000     0.0283699  
H84      H      0.507650000000     0.605960000000     0.423840000000     0.0459733  
H85      H      0.476300000000     0.628780000000     0.424150000000     0.0458344  
H86      H      0.436180000000     0.628240000000     0.424130000000     0.0281405  
H87      H      0.436340000000     0.606290000000     0.559610000000     0.0283676  
H88      H      0.476510000000     0.605860000000     0.559150000000     0.0459784  
H89      H      0.507420000000     0.628540000000     0.059000000000     0.0458868  
H90      H      0.547540000000     0.628180000000     0.058920000000     0.028156   
H91      H      0.547390000000     0.606190000000     0.923480000000     0.0283621  
H92      H      0.507230000000     0.605580000000     0.924020000000     0.0459804  
H93      H      0.475930000000     0.628500000000     0.924280000000     0.0458535  
H94      H      0.435810000000     0.628120000000     0.924330000000     0.0281274  
H95      H      0.435950000000     0.606220000000     0.059840000000     0.0283345  
H96      H      0.476110000000     0.605640000000     0.059320000000     0.0460007  
H97      H      0.226690000000     0.333450000000     0.516870000000     0.0468053  
H98      H      0.186350000000     0.333370000000     0.516800000000     0.0279464  
H99      H      0.186330000000     0.400640000000     0.469590000000     0.0279753  
H100     H      0.226660000000     0.400540000000     0.469250000000     0.0469129  
H101     H      0.257030000000     0.379370000000     0.426090000000     0.0468621  
H102     H      0.297350000000     0.379210000000     0.425440000000     0.0279814  
H103     H      0.297710000000     0.354600000000     0.559160000000     0.028317   
H104     H      0.257370000000     0.354560000000     0.559440000000     0.0469162  
H105     H      0.476160000000     0.355060000000     0.558570000000     0.0458978  
H106     H      0.436050000000     0.355580000000     0.558550000000     0.0281232  
H107     H      0.436230000000     0.377520000000     0.423080000000     0.0283565  
H108     H      0.476400000000     0.377980000000     0.423560000000     0.0459832  
H109     H      0.507700000000     0.355060000000     0.423850000000     0.0458965  
H110     H      0.547820000000     0.355490000000     0.423910000000     0.0281237  
H111     H      0.547650000000     0.377370000000     0.559430000000     0.0283489  
H112     H      0.507490000000     0.377920000000     0.558900000000     0.0459965  
H113     H      0.355540000000     0.507640000000     0.558670000000     0.045873   
H114     H      0.356000000000     0.547760000000     0.558640000000     0.0281514  
H115     H      0.377930000000     0.547600000000     0.423150000000     0.0283572  
H116     H      0.378440000000     0.507430000000     0.423660000000     0.0459931  
H117     H      0.355520000000     0.476140000000     0.423940000000     0.0458917  
H118     H      0.355900000000     0.436020000000     0.423990000000     0.0281348  
H119     H      0.377820000000     0.436150000000     0.559480000000     0.0283476  
H120     H      0.378410000000     0.476320000000     0.558960000000     0.0460038  
H121     H      0.226600000000     0.333440000000     0.016950000000     0.0468007  
H122     H      0.186260000000     0.333350000000     0.016850000000     0.0279698  
H123     H      0.186240000000     0.400630000000     0.969690000000     0.0279898  
H124     H      0.226570000000     0.400550000000     0.969380000000     0.0468633  
H125     H      0.256940000000     0.379380000000     0.926220000000     0.0468621  
H126     H      0.297260000000     0.379260000000     0.925610000000     0.0279902  
H127     H      0.297620000000     0.354630000000     0.059300000000     0.028315   
H128     H      0.257280000000     0.354550000000     0.059550000000     0.0469182  
H129     H      0.476270000000     0.378660000000     0.923940000000     0.0459768  
H130     H      0.436100000000     0.378020000000     0.923420000000     0.0283475  
H131     H      0.435990000000     0.356070000000     0.058890000000     0.0281218  
H132     H      0.476110000000     0.355740000000     0.058950000000     0.0458598  
H133     H      0.507360000000     0.378720000000     0.059280000000     0.045989   
H134     H      0.547530000000     0.378260000000     0.059820000000     0.0283425  
H135     H      0.547750000000     0.356370000000     0.924310000000     0.0281238  
H136     H      0.507640000000     0.355850000000     0.924240000000     0.0458711  
H137     H      0.355050000000     0.476330000000     0.924300000000     0.0458888  
H138     H      0.355560000000     0.436210000000     0.924320000000     0.0281357  
H139     H      0.377490000000     0.436390000000     0.059810000000     0.0283593  
H140     H      0.377950000000     0.476560000000     0.059310000000     0.0459904  
H141     H      0.355030000000     0.507850000000     0.059020000000     0.0458791  
H142     H      0.355460000000     0.547970000000     0.058980000000     0.0281155  
H143     H      0.377370000000     0.547820000000     0.923480000000     0.0283388  
H144     H      0.377910000000     0.507660000000     0.923990000000     0.046001   
H145     H      0.584300000000     0.756860000000     0.515180000000     0.0468554  
H146     H      0.583980000000     0.797170000000     0.514690000000     0.0280358  
H147     H      0.651100000000     0.797490000000     0.466610000000     0.0282348  
H148     H      0.651240000000     0.757130000000     0.466710000000     0.0468255  
H149     H      0.630170000000     0.726310000000     0.424480000000     0.0469288  
H150     H      0.629930000000     0.685970000000     0.424570000000     0.0283456  
H151     H      0.605530000000     0.686290000000     0.558440000000     0.0280457  
H152     H      0.605580000000     0.726600000000     0.558000000000     0.0468133  
H153     H      0.582450000000     0.757850000000     0.013810000000     0.0469161  
H154     H      0.582570000000     0.798200000000     0.013710000000     0.0282773  
H155     H      0.649660000000     0.797860000000     0.965500000000     0.0279713  
H156     H      0.649370000000     0.757550000000     0.965200000000     0.0467547  
H157     H      0.628090000000     0.727020000000     0.922900000000     0.0469169  
H158     H      0.628240000000     0.686690000000     0.923270000000     0.0283463  
H159     H      0.603990000000     0.687000000000     0.057250000000     0.0280109  
H160     H      0.603650000000     0.727330000000     0.056530000000     0.0468384  
H161     H      0.650700000000     0.878510000000     0.709040000000     0.0459515  
H162     H      0.650910000000     0.877760000000     0.628810000000     0.0284094  
H163     H      0.583120000000     0.855760000000     0.628860000000     0.0280876  
H164     H      0.583150000000     0.855550000000     0.709050000000     0.0458547  
H165     H      0.583050000000     0.878670000000     0.771340000000     0.04598    
H166     H      0.582830000000     0.878340000000     0.851590000000     0.028381   
H167     H      0.650640000000     0.856410000000     0.852020000000     0.0281652  
H168     H      0.650620000000     0.855780000000     0.771850000000     0.0458279  
H169     H      0.650600000000     0.855380000000     0.209030000000     0.0458708  
H170     H      0.650770000000     0.856050000000     0.128810000000     0.0284519  
H171     H      0.582990000000     0.878040000000     0.128870000000     0.0281712  
H172     H      0.583050000000     0.878330000000     0.209060000000     0.0459194  
H173     H      0.650550000000     0.878220000000     0.271710000000     0.0459128  
H174     H      0.650630000000     0.877670000000     0.351880000000     0.0281852  
H175     H      0.582830000000     0.855700000000     0.351730000000     0.0283855  
H176     H      0.582990000000     0.855290000000     0.271480000000     0.0459052  
H177     H      0.583480000000     0.226540000000     0.468810000000     0.046938   
H178     H      0.583280000000     0.186210000000     0.469160000000     0.0280082  
H179     H      0.650560000000     0.186060000000     0.516320000000     0.0279518  
H180     H      0.650580000000     0.226400000000     0.516380000000     0.046802   
H181     H      0.629520000000     0.257120000000     0.559020000000     0.0469051  
H182     H      0.629440000000     0.297470000000     0.558860000000     0.0283145  
H183     H      0.604840000000     0.297180000000     0.425130000000     0.0279846  
H184     H      0.604710000000     0.256860000000     0.425660000000     0.0468463  
H185     H      0.649920000000     0.007200000000     0.515070000000     0.0459758  
H186     H      0.650170000000     0.047330000000     0.514740000000     0.0284055  
H187     H      0.582450000000     0.047720000000     0.470400000000     0.0284366  
H188     H      0.582440000000     0.007580000000     0.468790000000     0.0459863  
H189     H      0.582330000000     0.975910000000     0.513690000000     0.0459751  
H190     H      0.582320000000     0.935750000000     0.512040000000     0.0283842  
H191     H      0.650200000000     0.936140000000     0.468700000000     0.0281673  
H192     H      0.649980000000     0.976260000000     0.468420000000     0.0459011  
H193     H      0.604310000000     0.257540000000     0.926380000000     0.0468096  
H194     H      0.604480000000     0.297870000000     0.925780000000     0.0280104  
H195     H      0.629050000000     0.298190000000     0.059530000000     0.0283245  
H196     H      0.629080000000     0.257840000000     0.059760000000     0.0469115  
H197     H      0.650250000000     0.227240000000     0.017140000000     0.04681    
H198     H      0.650430000000     0.186910000000     0.016930000000     0.0279905  
H199     H      0.583170000000     0.186760000000     0.969620000000     0.0279706  
H200     H      0.583170000000     0.227090000000     0.969430000000     0.0468768  
H201     H      0.650780000000     0.106000000000     0.773920000000     0.0459454  
H202     H      0.651070000000     0.106700000000     0.854160000000     0.028425   
H203     H      0.583280000000     0.128680000000     0.854420000000     0.0280979  
H204     H      0.583230000000     0.128950000000     0.774240000000     0.0458782  
H205     H      0.583030000000     0.105850000000     0.711950000000     0.0459563  
H206     H      0.582730000000     0.106130000000     0.631700000000     0.0283662  
H207     H      0.650550000000     0.128010000000     0.630930000000     0.0281281  
H208     H      0.650620000000     0.128700000000     0.711090000000     0.0458215  
H209     H      0.650580000000     0.128610000000     0.211690000000     0.0458505  
H210     H      0.650730000000     0.128310000000     0.131490000000     0.0281616  
H211     H      0.582940000000     0.106310000000     0.131140000000     0.0284647  
H212     H      0.583030000000     0.105660000000     0.211370000000     0.0460097  
H213     H      0.583020000000     0.128500000000     0.274100000000     0.0458615  
H214     H      0.582890000000     0.127930000000     0.354290000000     0.0281358  
H215     H      0.650670000000     0.105910000000     0.354270000000     0.0284983  
H216     H      0.650570000000     0.105530000000     0.274040000000     0.0459549  
H217     H      0.583670000000     0.976800000000     0.014160000000     0.0459453  
H218     H      0.583440000000     0.936690000000     0.012800000000     0.0281481  
H219     H      0.651360000000     0.936570000000     0.969680000000     0.0283731  
H220     H      0.651360000000     0.976750000000     0.969110000000     0.0459388  
H221     H      0.651210000000     0.008110000000     0.014910000000     0.0460139  
H222     H      0.651210000000     0.048270000000     0.014380000000     0.0284558  
H223     H      0.583530000000     0.048170000000     0.969770000000     0.0283851  
H224     H      0.583770000000     0.008050000000     0.968370000000     0.0459242  
H225     H      0.226890000000     0.650310000000     0.465680000000     0.0467954  
H226     H      0.186560000000     0.650520000000     0.465830000000     0.0280117  
H227     H      0.186330000000     0.583290000000     0.513260000000     0.0279956  
H228     H      0.226670000000     0.583250000000     0.513510000000     0.0469165  
H229     H      0.257130000000     0.604360000000     0.556540000000     0.0468312  
H230     H      0.297460000000     0.604520000000     0.557190000000     0.0279965  
H231     H      0.297830000000     0.629080000000     0.423440000000     0.0283188  
H232     H      0.257490000000     0.629120000000     0.423150000000     0.0469575  
H233     H      0.226370000000     0.650690000000     0.966110000000     0.0467406  
H234     H      0.186030000000     0.650670000000     0.966100000000     0.0279286  
H235     H      0.186150000000     0.583470000000     0.013740000000     0.0279952  
H236     H      0.226480000000     0.583660000000     0.014140000000     0.0469071  
H237     H      0.256790000000     0.604920000000     0.057160000000     0.0468545  
H238     H      0.297110000000     0.605040000000     0.057760000000     0.0279764  
H239     H      0.297450000000     0.629520000000     0.923940000000     0.0283069  
H240     H      0.257110000000     0.629590000000     0.923700000000     0.0469199  
H241     H      0.128760000000     0.650130000000     0.771300000000     0.0458405  
H242     H      0.128170000000     0.650220000000     0.851430000000     0.0281108  
H243     H      0.105850000000     0.582550000000     0.851320000000     0.0283628  
H244     H      0.105460000000     0.582700000000     0.771030000000     0.045994   
H245     H      0.128250000000     0.582680000000     0.708240000000     0.045843   
H246     H      0.127870000000     0.582830000000     0.628010000000     0.0281064  
H247     H      0.106460000000     0.650790000000     0.628750000000     0.0281589  
H248     H      0.105850000000     0.650420000000     0.708930000000     0.0458694  
H249     H      0.105340000000     0.651280000000     0.208350000000     0.0459844  
H250     H      0.105800000000     0.651230000000     0.128090000000     0.0284949  
H251     H      0.128100000000     0.583550000000     0.128680000000     0.0281139  
H252     H      0.128610000000     0.583840000000     0.208850000000     0.0458411  
H253     H      0.105560000000     0.583770000000     0.271120000000     0.0459089  
H254     H      0.106100000000     0.583600000000     0.351290000000     0.0281908  
H255     H      0.127730000000     0.651510000000     0.351430000000     0.0281351  
H256     H      0.128150000000     0.651440000000     0.271180000000     0.0458586  
H257     H      0.757510000000     0.582600000000     0.469680000000     0.0469611  
H258     H      0.797860000000     0.582750000000     0.469810000000     0.0283202  
H259     H      0.797450000000     0.649800000000     0.518250000000     0.0280373  
H260     H      0.757140000000     0.649470000000     0.518510000000     0.0468022  
H261     H      0.726610000000     0.628150000000     0.560700000000     0.0469185  
H262     H      0.686280000000     0.628270000000     0.560290000000     0.0283281  
H263     H      0.686650000000     0.604120000000     0.426230000000     0.028017   
H264     H      0.726980000000     0.603800000000     0.427010000000     0.0468977  
H265     H      0.976600000000     0.584100000000     0.515390000000     0.0459454  
H266     H      0.936480000000     0.583860000000     0.515230000000     0.0282461  
H267     H      0.936030000000     0.651500000000     0.470360000000     0.0284809  
H268     H      0.976200000000     0.651490000000     0.468610000000     0.0459848  
H269     H      0.007480000000     0.583920000000     0.468550000000     0.04595    
H270     H      0.047620000000     0.583660000000     0.468820000000     0.0281346  
H271     H      0.048050000000     0.651590000000     0.511880000000     0.0282089  
H272     H      0.007900000000     0.651620000000     0.513520000000     0.0459609  
H273     H      0.757100000000     0.651500000000     0.017370000000     0.0468322  
H274     H      0.797450000000     0.651330000000     0.017530000000     0.0282544  
H275     H      0.797100000000     0.584300000000     0.968940000000     0.0280191  
H276     H      0.756800000000     0.584650000000     0.968400000000     0.0468819  
H277     H      0.726590000000     0.606010000000     0.925670000000     0.0468052  
H278     H      0.686280000000     0.605990000000     0.925110000000     0.0280278  
H279     H      0.685880000000     0.630210000000     0.059110000000     0.0283485  
H280     H      0.726220000000     0.630420000000     0.059320000000     0.046904   
H281     H      0.878220000000     0.583830000000     0.712440000000     0.0459508  
H282     H      0.877880000000     0.583520000000     0.632250000000     0.0281248  
H283     H      0.856360000000     0.651450000000     0.631450000000     0.0281119  
H284     H      0.855730000000     0.651530000000     0.711670000000     0.0458476  
H285     H      0.878310000000     0.651460000000     0.774810000000     0.0459834  
H286     H      0.877620000000     0.651530000000     0.855070000000     0.0284171  
H287     H      0.855290000000     0.583850000000     0.854580000000     0.0280695  
H288     H      0.855010000000     0.584030000000     0.774420000000     0.0458643  
H289     H      0.854920000000     0.650140000000     0.274420000000     0.0458541  
H290     H      0.855430000000     0.650400000000     0.354600000000     0.0284955  
H291     H      0.877830000000     0.582750000000     0.355030000000     0.0284519  
H292     H      0.878270000000     0.582730000000     0.274790000000     0.045997   
H293     H      0.878080000000     0.650250000000     0.212250000000     0.0458723  
H294     H      0.877620000000     0.650490000000     0.132100000000     0.0282411  
H295     H      0.855940000000     0.582600000000     0.131610000000     0.0284757  
H296     H      0.855450000000     0.582600000000     0.211880000000     0.0459105  
H297     H      0.007540000000     0.582660000000     0.014210000000     0.0460526  
H298     H      0.047680000000     0.582650000000     0.012480000000     0.02847    
H299     H      0.047270000000     0.650350000000     0.968000000000     0.0284478  
H300     H      0.007130000000     0.650120000000     0.967830000000     0.0458647  
H301     H      0.976250000000     0.650190000000     0.014700000000     0.0459039  
H302     H      0.936130000000     0.650420000000     0.014640000000     0.028232   
H303     H      0.935660000000     0.582550000000     0.971200000000     0.028409   
H304     H      0.975830000000     0.582560000000     0.969350000000     0.0459874  
H305     H      0.379230000000     0.256990000000     0.556760000000     0.0468568  
H306     H      0.379110000000     0.297320000000     0.557340000000     0.027988   
H307     H      0.354460000000     0.297640000000     0.423650000000     0.0283109  
H308     H      0.354380000000     0.257300000000     0.423430000000     0.0469422  
H309     H      0.333280000000     0.226640000000     0.466080000000     0.0467979  
H310     H      0.333190000000     0.186300000000     0.466220000000     0.0279673  
H311     H      0.400470000000     0.186280000000     0.513360000000     0.0279582  
H312     H      0.400390000000     0.226610000000     0.513620000000     0.0468983  
H313     H      0.333350000000     0.226870000000     0.966150000000     0.0467332  
H314     H      0.333240000000     0.186530000000     0.966250000000     0.0279801  
H315     H      0.400510000000     0.186470000000     0.013460000000     0.0280374  
H316     H      0.400450000000     0.226800000000     0.013760000000     0.0469048  
H317     H      0.379300000000     0.257190000000     0.056890000000     0.0468261  
H318     H      0.379160000000     0.297520000000     0.057510000000     0.0279656  
H319     H      0.354540000000     0.297870000000     0.923790000000     0.0282862  
H320     H      0.354480000000     0.257530000000     0.923540000000     0.0469228  
H321     H      0.333100000000     0.128630000000     0.771440000000     0.045793   
H322     H      0.333070000000     0.128170000000     0.851620000000     0.028173   
H323     H      0.400850000000     0.106190000000     0.851450000000     0.0284154  
H324     H      0.400660000000     0.105680000000     0.771210000000     0.0459537  
H325     H      0.400570000000     0.128610000000     0.708640000000     0.0458537  
H326     H      0.400600000000     0.128140000000     0.628460000000     0.0281006  
H327     H      0.332810000000     0.106180000000     0.628680000000     0.028447   
H328     H      0.333010000000     0.105690000000     0.708910000000     0.045968   
H329     H      0.400620000000     0.105610000000     0.271160000000     0.0459496  
H330     H      0.400810000000     0.106020000000     0.351410000000     0.0284088  
H331     H      0.333010000000     0.127980000000     0.351670000000     0.02815    
H332     H      0.333060000000     0.128540000000     0.271490000000     0.0458521  
H333     H      0.332980000000     0.105700000000     0.208820000000     0.0459346  
H334     H      0.332790000000     0.106300000000     0.128590000000     0.0285025  
H335     H      0.400590000000     0.128270000000     0.128540000000     0.0281631  
H336     H      0.400540000000     0.128630000000     0.208730000000     0.045876   
H337     H      0.333300000000     0.757110000000     0.516710000000     0.0468204  
H338     H      0.333200000000     0.797450000000     0.516660000000     0.0279879  
H339     H      0.400480000000     0.797510000000     0.469480000000     0.0280044  
H340     H      0.400400000000     0.757180000000     0.469140000000     0.0468789  
H341     H      0.379260000000     0.726800000000     0.425970000000     0.0468338  
H342     H      0.379160000000     0.686480000000     0.425350000000     0.0279991  
H343     H      0.354520000000     0.686100000000     0.559040000000     0.0283127  
H344     H      0.354410000000     0.726440000000     0.559300000000     0.0469277  
H345     H      0.400570000000     0.976150000000     0.468850000000     0.046019   
H346     H      0.400700000000     0.936020000000     0.470420000000     0.0284388  
H347     H      0.332910000000     0.936170000000     0.514400000000     0.0284429  
H348     H      0.333030000000     0.976320000000     0.514730000000     0.0459866  
H349     H      0.333020000000     0.007450000000     0.468380000000     0.0459369  
H350     H      0.332910000000     0.047600000000     0.468690000000     0.0284706  
H351     H      0.400700000000     0.047760000000     0.512590000000     0.0284299  
H352     H      0.400580000000     0.007620000000     0.514190000000     0.0459628  
H353     H      0.400360000000     0.757360000000     0.969390000000     0.0468858  
H354     H      0.400450000000     0.797690000000     0.969630000000     0.0279832  
H355     H      0.333170000000     0.797690000000     0.016820000000     0.0279803  
H356     H      0.333260000000     0.757350000000     0.016990000000     0.0467938  
H357     H      0.354370000000     0.726690000000     0.059640000000     0.0469033  
H358     H      0.354410000000     0.686350000000     0.059420000000     0.0283431  
H359     H      0.379010000000     0.686650000000     0.925710000000     0.0280177  
H360     H      0.379180000000     0.726980000000     0.926290000000     0.0468347  
H361     H      0.332990000000     0.878280000000     0.774070000000     0.0459119  
H362     H      0.332790000000     0.877790000000     0.854310000000     0.0284633  
H363     H      0.400590000000     0.855830000000     0.854520000000     0.0280975  
H364     H      0.400550000000     0.855360000000     0.774330000000     0.0458968  
H365     H      0.400640000000     0.878280000000     0.711770000000     0.0459629  
H366     H      0.400830000000     0.877780000000     0.631520000000     0.0284423  
H367     H      0.333040000000     0.855810000000     0.631360000000     0.028187   
H368     H      0.333080000000     0.855350000000     0.711540000000     0.0458015  
H369     H      0.332960000000     0.878300000000     0.274150000000     0.0459022  
H370     H      0.332770000000     0.877700000000     0.354390000000     0.0284824  
H371     H      0.400570000000     0.855720000000     0.354440000000     0.0281312  
H372     H      0.400520000000     0.855360000000     0.274250000000     0.0458336  
H373     H      0.400600000000     0.878380000000     0.211820000000     0.0459765  
H374     H      0.400790000000     0.877970000000     0.131570000000     0.0284556  
H375     H      0.333000000000     0.856010000000     0.131310000000     0.0281781  
H376     H      0.333040000000     0.855460000000     0.211490000000     0.0458025  
H377     H      0.333030000000     0.007670000000     0.968260000000     0.0459279  
H378     H      0.332920000000     0.047820000000     0.968600000000     0.0284644  
H379     H      0.400700000000     0.047960000000     0.012570000000     0.0284659  
H380     H      0.400570000000     0.007820000000     0.014140000000     0.045963   
H381     H      0.400570000000     0.976350000000     0.968790000000     0.0459471  
H382     H      0.400690000000     0.936220000000     0.970380000000     0.0284294  
H383     H      0.332900000000     0.936390000000     0.014280000000     0.0284675  
H384     H      0.333010000000     0.976530000000     0.014600000000     0.0459244  
O1       O      0.385320000000     0.867320000000     0.055390000000    -0.54556    
O2       O      0.385160000000     0.866640000000     0.930240000000    -0.547078   
O3       O      0.385240000000     0.898300000000     0.992060000000    -0.546225   
O4       O      0.385250000000     0.835670000000     0.993190000000    -0.546437   
O5       O      0.348350000000     0.835660000000     0.992970000000    -0.546305   
O6       O      0.348350000000     0.898300000000     0.993460000000    -0.546372   
O7       O      0.348270000000     0.867170000000     0.930470000000    -0.545794   
O8       O      0.348430000000     0.866780000000     0.055610000000    -0.546972   
O9       O      0.385340000000     0.867090000000     0.555370000000    -0.545738   
O10      O      0.385160000000     0.866460000000     0.430220000000    -0.547167   
O11      O      0.385250000000     0.898090000000     0.492090000000    -0.546209   
O12      O      0.385270000000     0.835460000000     0.493130000000    -0.546329   
O13      O      0.348360000000     0.835450000000     0.492930000000    -0.545959   
O14      O      0.348360000000     0.898090000000     0.493530000000    -0.546295   
O15      O      0.348270000000     0.866990000000     0.430480000000    -0.545604   
O16      O      0.348450000000     0.866540000000     0.555630000000    -0.546884   
O17      O      0.385370000000     0.116880000000     0.927600000000    -0.545473   
O18      O      0.385190000000     0.117530000000     0.052760000000    -0.546788   
O19      O      0.385260000000     0.085890000000     0.990900000000    -0.546551   
O20      O      0.385300000000     0.148520000000     0.989840000000    -0.546206   
O21      O      0.348400000000     0.148540000000     0.990040000000    -0.546302   
O22      O      0.348370000000     0.085900000000     0.989460000000    -0.546049   
O23      O      0.348290000000     0.117010000000     0.052500000000    -0.545418   
O24      O      0.348480000000     0.117430000000     0.927350000000    -0.547059   
O25      O      0.385330000000     0.116670000000     0.427590000000    -0.545787   
O26      O      0.385180000000     0.117340000000     0.552740000000    -0.547254   
O27      O      0.385250000000     0.085690000000     0.490910000000    -0.546668   
O28      O      0.385260000000     0.148310000000     0.489790000000    -0.546727   
O29      O      0.348360000000     0.148320000000     0.490020000000    -0.546126   
O30      O      0.348360000000     0.085680000000     0.489510000000    -0.546193   
O31      O      0.348290000000     0.116810000000     0.552520000000    -0.545771   
O32      O      0.348440000000     0.117210000000     0.427370000000    -0.547053   
O33      O      0.866340000000     0.598380000000     0.055540000000    -0.545441   
O34      O      0.866240000000     0.598990000000     0.930400000000    -0.547246   
O35      O      0.897690000000     0.598350000000     0.992700000000    -0.545558   
O36      O      0.835050000000     0.599030000000     0.992860000000    -0.546946   
O37      O      0.835460000000     0.635920000000     0.994010000000    -0.545538   
O38      O      0.898090000000     0.635240000000     0.993710000000    -0.547085   
O39      O      0.866790000000     0.635880000000     0.931110000000    -0.545243   
O40      O      0.866930000000     0.635270000000     0.056270000000    -0.546927   
O41      O      0.867120000000     0.598780000000     0.556160000000    -0.546234   
O42      O      0.867350000000     0.598360000000     0.430990000000    -0.546171   
O43      O      0.898460000000     0.598920000000     0.493920000000    -0.546926   
O44      O      0.835840000000     0.598200000000     0.493220000000    -0.545838   
O45      O      0.835410000000     0.635100000000     0.494010000000    -0.546852   
O46      O      0.898040000000     0.635810000000     0.492250000000    -0.545488   
O47      O      0.866270000000     0.635240000000     0.430550000000    -0.546387   
O48      O      0.867010000000     0.635680000000     0.555680000000    -0.546282   
O49      O      0.116610000000     0.598120000000     0.927600000000    -0.54527    
O50      O      0.117170000000     0.598660000000     0.052790000000    -0.546857   
O51      O      0.085570000000     0.598240000000     0.990830000000    -0.546563   
O52      O      0.148190000000     0.598500000000     0.989940000000    -0.546459   
O53      O      0.148050000000     0.635400000000     0.989760000000    -0.546178   
O54      O      0.085410000000     0.635120000000     0.989000000000    -0.546476   
O55      O      0.116470000000     0.635540000000     0.052110000000    -0.545978   
O56      O      0.117000000000     0.635010000000     0.927000000000    -0.547543   
O57      O      0.116930000000     0.598960000000     0.427130000000    -0.546689   
O58      O      0.117170000000     0.598600000000     0.552250000000    -0.546575   
O59      O      0.085740000000     0.598970000000     0.489700000000    -0.546465   
O60      O      0.148380000000     0.598630000000     0.489700000000    -0.546403   
O61      O      0.148560000000     0.635530000000     0.489740000000    -0.546285   
O62      O      0.085930000000     0.635860000000     0.490370000000    -0.546148   
O63      O      0.117270000000     0.635500000000     0.552660000000    -0.54602    
O64      O      0.117210000000     0.635860000000     0.427470000000    -0.545962   
O65      O      0.598500000000     0.117080000000     0.055210000000    -0.545834   
O66      O      0.598720000000     0.117850000000     0.930090000000    -0.547396   
O67      O      0.598760000000     0.086150000000     0.991810000000    -0.546282   
O68      O      0.598480000000     0.148790000000     0.993110000000    -0.546219   
O69      O      0.635380000000     0.148930000000     0.992950000000    -0.546371   
O70      O      0.635650000000     0.086300000000     0.993300000000    -0.546271   
O71      O      0.635610000000     0.117460000000     0.930360000000    -0.545329   
O72      O      0.635390000000     0.117770000000     0.055540000000    -0.546657   
O73      O      0.598150000000     0.116680000000     0.555310000000    -0.545333   
O74      O      0.598270000000     0.117200000000     0.430120000000    -0.546815   
O75      O      0.598050000000     0.085620000000     0.492120000000    -0.546333   
O76      O      0.598340000000     0.148240000000     0.492930000000    -0.546585   
O77      O      0.635240000000     0.148090000000     0.492660000000    -0.546183   
O78      O      0.634940000000     0.085450000000     0.493490000000    -0.546471   
O79      O      0.635160000000     0.116500000000     0.430340000000    -0.546017   
O80      O      0.635040000000     0.117060000000     0.555460000000    -0.547532   
O81      O      0.598280000000     0.867710000000     0.927840000000    -0.545617   
O82      O      0.598410000000     0.867480000000     0.053000000000    -0.547007   
O83      O      0.598670000000     0.898820000000     0.990840000000    -0.547552   
O84      O      0.598010000000     0.836200000000     0.990360000000    -0.545923   
O85      O      0.634900000000     0.835800000000     0.989720000000    -0.547107   
O86      O      0.635560000000     0.898440000000     0.990370000000    -0.545825   
O87      O      0.635300000000     0.866880000000     0.052790000000    -0.545795   
O88      O      0.635180000000     0.867180000000     0.927650000000    -0.546977   
O89      O      0.598340000000     0.866310000000     0.427880000000    -0.545633   
O90      O      0.598530000000     0.866380000000     0.553030000000    -0.547015   
O91      O      0.598110000000     0.897750000000     0.490560000000    -0.545522   
O92      O      0.598770000000     0.835110000000     0.490730000000    -0.547137   
O93      O      0.635660000000     0.835510000000     0.490020000000    -0.545892   
O94      O      0.635000000000     0.898140000000     0.490010000000    -0.547021   
O95      O      0.635420000000     0.866920000000     0.552770000000    -0.545736   
O96      O      0.635230000000     0.866900000000     0.427610000000    -0.547225   
O97      O      0.366510000000     0.398410000000     0.955070000000    -0.547525   
O98      O      0.366530000000     0.335810000000     0.954300000000    -0.545993   
O99      O      0.335280000000     0.367190000000     0.955110000000    -0.546392   
O100     O      0.397950000000     0.367210000000     0.954390000000    -0.54512    
O101     O      0.398150000000     0.366860000000     0.028110000000    -0.547497   
O102     O      0.335550000000     0.366680000000     0.028840000000    -0.546189   
O103     O      0.367030000000     0.335530000000     0.028020000000    -0.546655   
O104     O      0.366840000000     0.398190000000     0.028800000000    -0.545081   
O105     O      0.366690000000     0.398180000000     0.454780000000    -0.547613   
O106     O      0.366510000000     0.335580000000     0.454090000000    -0.546093   
O107     O      0.335360000000     0.367060000000     0.454900000000    -0.546417   
O108     O      0.398030000000     0.366880000000     0.454100000000    -0.545235   
O109     O      0.398250000000     0.366550000000     0.527820000000    -0.547709   
O110     O      0.335650000000     0.366570000000     0.528620000000    -0.546152   
O111     O      0.367030000000     0.335330000000     0.527810000000    -0.546761   
O112     O      0.367050000000     0.397990000000     0.528500000000    -0.545204   
O113     O      0.366350000000     0.585790000000     0.028210000000    -0.547238   
O114     O      0.366370000000     0.648400000000     0.028950000000    -0.545963   
O115     O      0.335120000000     0.617020000000     0.028170000000    -0.546351   
O116     O      0.397780000000     0.616990000000     0.028860000000    -0.545288   
O117     O      0.397980000000     0.617330000000     0.955140000000    -0.547518   
O118     O      0.335380000000     0.617510000000     0.954440000000    -0.546154   
O119     O      0.366860000000     0.648660000000     0.955220000000    -0.546701   
O120     O      0.366680000000     0.586000000000     0.954490000000    -0.545108   
O121     O      0.366820000000     0.585580000000     0.527860000000    -0.547573   
O122     O      0.366600000000     0.648180000000     0.528570000000    -0.546092   
O123     O      0.335470000000     0.616670000000     0.527730000000    -0.546361   
O124     O      0.398140000000     0.616910000000     0.528570000000    -0.545046   
O125     O      0.398370000000     0.617240000000     0.454840000000    -0.547432   
O126     O      0.335770000000     0.617170000000     0.454010000000    -0.545962   
O127     O      0.367130000000     0.648450000000     0.454850000000    -0.54643    
O128     O      0.367190000000     0.585780000000     0.454130000000    -0.545073   
O129     O      0.585560000000     0.367210000000     0.955160000000    -0.547524   
O130     O      0.648160000000     0.367000000000     0.954540000000    -0.546011   
O131     O      0.616660000000     0.335870000000     0.955290000000    -0.546639   
O132     O      0.616880000000     0.398530000000     0.954550000000    -0.545167   
O133     O      0.617190000000     0.398740000000     0.028270000000    -0.547593   
O134     O      0.617120000000     0.336140000000     0.029020000000    -0.545942   
O135     O      0.648390000000     0.367500000000     0.028270000000    -0.546672   
O136     O      0.585730000000     0.367550000000     0.028890000000    -0.545052   
O137     O      0.585640000000     0.366390000000     0.454720000000    -0.547317   
O138     O      0.648250000000     0.366460000000     0.454060000000    -0.546179   
O139     O      0.616880000000     0.335190000000     0.454750000000    -0.546723   
O140     O      0.616820000000     0.397850000000     0.454160000000    -0.545273   
O141     O      0.617140000000     0.398010000000     0.527880000000    -0.547786   
O142     O      0.617360000000     0.335410000000     0.528470000000    -0.546077   
O143     O      0.648490000000     0.366910000000     0.527780000000    -0.546724   
O144     O      0.585830000000     0.366690000000     0.528440000000    -0.545497   
O145     O      0.617190000000     0.586110000000     0.955030000000    -0.54739    
O146     O      0.616730000000     0.648710000000     0.954060000000    -0.546021   
O147     O      0.648200000000     0.617550000000     0.954890000000    -0.546753   
O148     O      0.585540000000     0.617100000000     0.954340000000    -0.544933   
O149     O      0.585390000000     0.617510000000     0.028070000000    -0.547421   
O150     O      0.647990000000     0.618110000000     0.028610000000    -0.545905   
O151     O      0.616290000000     0.649040000000     0.027790000000    -0.546405   
O152     O      0.616890000000     0.586380000000     0.028760000000    -0.544966   
O153     O      0.617160000000     0.585460000000     0.455290000000    -0.547406   
O154     O      0.617740000000     0.648060000000     0.454900000000    -0.546135   
O155     O      0.648680000000     0.616370000000     0.455680000000    -0.546453   
O156     O      0.586010000000     0.616960000000     0.454630000000    -0.545031   
O157     O      0.585720000000     0.617210000000     0.528350000000    -0.547577   
O158     O      0.648320000000     0.616760000000     0.529410000000    -0.546238   
O159     O      0.617150000000     0.648230000000     0.528620000000    -0.5466     
O160     O      0.616710000000     0.585570000000     0.529010000000    -0.545229   
O161     O      0.116640000000     0.385500000000     0.055520000000    -0.545608   
O162     O      0.117290000000     0.385340000000     0.930370000000    -0.547082   
O163     O      0.085650000000     0.385420000000     0.992220000000    -0.546292   
O164     O      0.148280000000     0.385430000000     0.993300000000    -0.546172   
O165     O      0.148280000000     0.348530000000     0.993080000000    -0.546442   
O166     O      0.085650000000     0.348530000000     0.993630000000    -0.546279   
O167     O      0.116760000000     0.348450000000     0.930610000000    -0.545697   
O168     O      0.117180000000     0.348610000000     0.055760000000    -0.547078   
O169     O      0.116740000000     0.385530000000     0.555520000000    -0.545585   
O170     O      0.117370000000     0.385360000000     0.430370000000    -0.547131   
O171     O      0.085740000000     0.385450000000     0.492250000000    -0.546559   
O172     O      0.148370000000     0.385450000000     0.493260000000    -0.546361   
O173     O      0.148370000000     0.348550000000     0.493050000000    -0.546348   
O174     O      0.085730000000     0.348560000000     0.493680000000    -0.546218   
O175     O      0.116820000000     0.348470000000     0.430620000000    -0.545846   
O176     O      0.117280000000     0.348640000000     0.555760000000    -0.547245   
O177     O      0.867060000000     0.385570000000     0.927980000000    -0.54532    
O178     O      0.866430000000     0.385390000000     0.053140000000    -0.547049   
O179     O      0.898060000000     0.385460000000     0.991250000000    -0.546472   
O180     O      0.835430000000     0.385510000000     0.990240000000    -0.546287   
O181     O      0.835400000000     0.348610000000     0.990440000000    -0.546159   
O182     O      0.898040000000     0.348570000000     0.989830000000    -0.546252   
O183     O      0.866940000000     0.348500000000     0.052880000000    -0.545675   
O184     O      0.866490000000     0.348670000000     0.927740000000    -0.546741   
O185     O      0.867160000000     0.385530000000     0.427980000000    -0.545824   
O186     O      0.866460000000     0.385360000000     0.553120000000    -0.547173   
O187     O      0.898130000000     0.385450000000     0.491310000000    -0.546357   
O188     O      0.835500000000     0.385440000000     0.490160000000    -0.5466     
O189     O      0.835510000000     0.348540000000     0.490370000000    -0.54655    
O190     O      0.898140000000     0.348560000000     0.489900000000    -0.546254   
O191     O      0.867010000000     0.348470000000     0.552890000000    -0.545749   
O192     O      0.866630000000     0.348640000000     0.427740000000    -0.547175   
V1       V      0.386720000000     0.866980000000     0.992750000000     1.38654    
V2       V      0.346870000000     0.866980000000     0.993100000000     1.38687    
V3       V      0.386730000000     0.866770000000     0.492730000000     1.38679    
V4       V      0.346880000000     0.866770000000     0.493120000000     1.38652    
V5       V      0.386760000000     0.117200000000     0.990250000000     1.38627    
V6       V      0.346910000000     0.117220000000     0.989860000000     1.38663    
V7       V      0.386740000000     0.117000000000     0.490230000000     1.38749    
V8       V      0.346880000000     0.117000000000     0.489880000000     1.38682    
V9       V      0.866330000000     0.597210000000     0.992880000000     1.38626    
V10      V      0.866820000000     0.637050000000     0.993780000000     1.38651    
V11      V      0.867190000000     0.597090000000     0.493600000000     1.38668    
V12      V      0.866680000000     0.636940000000     0.493090000000     1.38689    
V13      V      0.116890000000     0.596900000000     0.990280000000     1.3861     
V14      V      0.116720000000     0.636750000000     0.989470000000     1.38755    
V15      V      0.117050000000     0.597310000000     0.489670000000     1.38753    
V16      V      0.117260000000     0.637170000000     0.490080000000     1.38628    
V17      V      0.597140000000     0.117460000000     0.992580000000     1.3869     
V18      V      0.636990000000     0.117620000000     0.993020000000     1.38623    
V19      V      0.596720000000     0.116940000000     0.492650000000     1.38642    
V20      V      0.636580000000     0.116760000000     0.492960000000     1.38766    
V21      V      0.596860000000     0.867560000000     0.990480000000     1.38719    
V22      V      0.636720000000     0.867080000000     0.990160000000     1.387      
V23      V      0.596960000000     0.866380000000     0.490520000000     1.38646    
V24      V      0.636810000000     0.866860000000     0.490120000000     1.38708    
V25      V      0.366580000000     0.367150000000     0.951760000000     1.38656    
V26      V      0.366880000000     0.366820000000     0.031400000000     1.38734    
V27      V      0.366660000000     0.366920000000     0.451510000000     1.38662    
V28      V      0.366990000000     0.366620000000     0.531140000000     1.38724    
V29      V      0.366420000000     0.617060000000     0.031500000000     1.38668    
V30      V      0.366710000000     0.617370000000     0.951870000000     1.387      
V31      V      0.366770000000     0.616840000000     0.531140000000     1.38663    
V32      V      0.367110000000     0.617150000000     0.451510000000     1.38669    
V33      V      0.616820000000     0.367160000000     0.951930000000     1.38699    
V34      V      0.617100000000     0.367480000000     0.031570000000     1.38723    
V35      V      0.616910000000     0.366480000000     0.451460000000     1.38676    
V36      V      0.617190000000     0.366750000000     0.531100000000     1.38738    
V37      V      0.616910000000     0.617370000000     0.951630000000     1.38678    
V38      V      0.616650000000     0.617750000000     0.031260000000     1.38682    
V39      V      0.617390000000     0.616730000000     0.452170000000     1.38638    
V40      V      0.616980000000     0.616930000000     0.531800000000     1.38707    
V41      V      0.116960000000     0.386900000000     0.992880000000     1.38651    
V42      V      0.116970000000     0.347050000000     0.993250000000     1.38706    
V43      V      0.117050000000     0.386930000000     0.492870000000     1.38693    
V44      V      0.117050000000     0.347070000000     0.493260000000     1.38717    
V45      V      0.866750000000     0.386960000000     0.990630000000     1.38636    
V46      V      0.866720000000     0.347110000000     0.990250000000     1.38673    
V47      V      0.866810000000     0.386930000000     0.490610000000     1.38707    
V48      V      0.866820000000     0.347070000000     0.490250000000     1.38739    


