data_structure

_audit_creation_method RASPA-1.0
_audit_creation_date 2023-5-22
_audit_author_name 'Poobodin Mano'

_cell_length_a    45.4514
_cell_length_b    45.4511
_cell_length_c    45.4511
_cell_angle_alpha 90
_cell_angle_beta  90
_cell_angle_gamma 90
_cell_volume      93893.6

_symmetry_cell_setting          triclinic
_symmetry_space_group_name_Hall 'P 1'
_symmetry_space_group_name_H-M  'P 1'
_symmetry_Int_Tables_number     1

_symmetry_equiv_pos_as_xyz 'x,y,z'

loop_
_atom_site_label
_atom_site_type_symbol
_atom_site_fract_x
_atom_site_fract_y
_atom_site_fract_z
_atom_site_charge
C1       C      0.714610000000     0.325030000000     0.992670000000     0.432158   
C2       C      0.603340000000     0.325270000000     0.991970000000     0.431921   
C3       C      0.659080000000     0.380790000000     0.992050000000     0.432064   
C4       C      0.658840000000     0.269520000000     0.992720000000     0.431896   
C5       C      0.269630000000     0.325440000000     0.992280000000     0.432185   
C6       C      0.380900000000     0.325190000000     0.991180000000     0.432156   
C7       C      0.325350000000     0.380970000000     0.992080000000     0.432018   
C8       C      0.325190000000     0.269690000000     0.991290000000     0.432096   
C9       C      0.659290000000     0.714510000000     0.991690000000     0.431887   
C10      C      0.659440000000     0.603240000000     0.992350000000     0.432109   
C11      C      0.603750000000     0.658800000000     0.992460000000     0.432001   
C12      C      0.715020000000     0.658970000000     0.991710000000     0.432204   
C13      C      0.270050000000     0.659010000000     0.992170000000     0.432126   
C14      C      0.381310000000     0.659110000000     0.993290000000     0.432253   
C15      C      0.325680000000     0.603420000000     0.992400000000     0.432187   
C16      C      0.325670000000     0.714680000000     0.993160000000     0.432263   
C17      C      0.714540000000     0.992040000000     0.658920000000     0.432277   
C18      C      0.603270000000     0.993140000000     0.659120000000     0.431854   
C19      C      0.658850000000     0.992270000000     0.603370000000     0.432199   
C20      C      0.658960000000     0.993010000000     0.714640000000     0.431871   
C21      C      0.269560000000     0.991710000000     0.659140000000     0.431785   
C22      C      0.380830000000     0.992390000000     0.658930000000     0.431916   
C23      C      0.325110000000     0.992320000000     0.603390000000     0.432087   
C24      C      0.325320000000     0.991650000000     0.714660000000     0.431832   
C25      C      0.325190000000     0.992700000000     0.269670000000     0.431942   
C26      C      0.324990000000     0.992040000000     0.380940000000     0.432089   
C27      C      0.380700000000     0.991920000000     0.325400000000     0.432022   
C28      C      0.269440000000     0.992690000000     0.325190000000     0.432237   
C29      C      0.714410000000     0.992150000000     0.325350000000     0.431724   
C30      C      0.603140000000     0.991050000000     0.325200000000     0.432155   
C31      C      0.658750000000     0.991960000000     0.380920000000     0.431792   
C32      C      0.658800000000     0.991150000000     0.269650000000     0.431786   
C33      C      0.992010000000     0.658170000000     0.713730000000     0.431991   
C34      C      0.992390000000     0.658240000000     0.602460000000     0.431863   
C35      C      0.992010000000     0.602540000000     0.658160000000     0.43192    
C36      C      0.992490000000     0.713810000000     0.658090000000     0.432096   
C37      C      0.991790000000     0.268830000000     0.659840000000     0.431991   
C38      C      0.992400000000     0.380100000000     0.659860000000     0.431843   
C39      C      0.991870000000     0.324490000000     0.604230000000     0.43184    
C40      C      0.992420000000     0.324480000000     0.715510000000     0.431823   
C41      C      0.992540000000     0.659920000000     0.268750000000     0.432269   
C42      C      0.991900000000     0.659950000000     0.380020000000     0.431914   
C43      C      0.992450000000     0.604320000000     0.324410000000     0.431886   
C44      C      0.991870000000     0.715590000000     0.324390000000     0.431922   
C45      C      0.991800000000     0.326240000000     0.270520000000     0.432057   
C46      C      0.992300000000     0.326170000000     0.381790000000     0.431955   
C47      C      0.991910000000     0.381880000000     0.326090000000     0.431924   
C48      C      0.992310000000     0.270610000000     0.326150000000     0.432443   
C49      C      0.936490000000     0.325330000000     0.992850000000     0.434439   
C50      C      0.047750000000     0.325580000000     0.993270000000     0.434212   
C51      C      0.991880000000     0.325670000000     0.048660000000     0.43464    
C52      C      0.992370000000     0.325250000000     0.937400000000     0.434382   
C53      C      0.936910000000     0.658950000000     0.991390000000     0.434488   
C54      C      0.048170000000     0.658810000000     0.991020000000     0.434178   
C55      C      0.992760000000     0.659070000000     0.046850000000     0.434012   
C56      C      0.992310000000     0.658680000000     0.935590000000     0.43438    
C57      C      0.047550000000     0.992970000000     0.325280000000     0.434169   
C58      C      0.936290000000     0.993300000000     0.325470000000     0.43446    
C59      C      0.991720000000     0.937490000000     0.325180000000     0.434644   
C60      C      0.992120000000     0.048740000000     0.325580000000     0.434662   
C61      C      0.936420000000     0.991050000000     0.658720000000     0.434564   
C62      C      0.047680000000     0.991510000000     0.658920000000     0.434229   
C63      C      0.991780000000     0.046930000000     0.659020000000     0.434226   
C64      C      0.992320000000     0.935670000000     0.658620000000     0.434527   
C65      C      0.658580000000     0.991370000000     0.047780000000     0.434535   
C66      C      0.658620000000     0.992660000000     0.936520000000     0.43422    
C67      C      0.658660000000     0.936390000000     0.991530000000     0.434698   
C68      C      0.658550000000     0.047640000000     0.992780000000     0.434402   
C69      C      0.325730000000     0.991560000000     0.936540000000     0.434196   
C70      C      0.325700000000     0.992820000000     0.047790000000     0.434502   
C71      C      0.325780000000     0.936560000000     0.992820000000     0.434692   
C72      C      0.325650000000     0.047820000000     0.991520000000     0.434055   
C73      C      0.001940000000     0.127810000000     0.301000000000    -0.0723115  
C74      C      0.992500000000     0.143380000000     0.325960000000     0.0231439  
C75      C      0.982980000000     0.127670000000     0.350800000000    -0.0745168  
C76      C      0.983090000000     0.096920000000     0.350770000000     0.0368419  
C77      C      0.992270000000     0.081290000000     0.325710000000    -0.136818   
C78      C      0.001600000000     0.097060000000     0.300790000000     0.0392771  
C79      C      0.992500000000     0.175970000000     0.326060000000     0.023042   
C80      C      0.017540000000     0.191660000000     0.317020000000    -0.0721569  
C81      C      0.017590000000     0.222410000000     0.317300000000     0.0388963  
C82      C      0.992420000000     0.238060000000     0.326160000000    -0.136435   
C83      C      0.967310000000     0.222310000000     0.334990000000     0.0366574  
C84      C      0.967440000000     0.191560000000     0.335160000000    -0.0744461  
C85      C      0.966500000000     0.317120000000     0.191600000000    -0.0744384  
C86      C      0.991530000000     0.326150000000     0.175880000000     0.0230157  
C87      C      0.016610000000     0.335250000000     0.191460000000    -0.0722433  
C88      C      0.016770000000     0.335080000000     0.222200000000     0.0388063  
C89      C      0.991660000000     0.326250000000     0.237980000000    -0.136431   
C90      C      0.966480000000     0.317400000000     0.222350000000     0.0367078  
C91      C      0.991500000000     0.326060000000     0.143300000000     0.0231493  
C92      C      0.982060000000     0.301100000000     0.127730000000    -0.0745395  
C93      C      0.982390000000     0.300880000000     0.096980000000     0.0368318  
C94      C      0.991720000000     0.325800000000     0.081210000000    -0.136834   
C95      C      0.000900000000     0.350860000000     0.096840000000     0.0392948  
C96      C      0.001020000000     0.350900000000     0.127590000000    -0.0723173  
C97      C      0.017660000000     0.525310000000     0.333210000000    -0.0714609  
C98      C      0.992290000000     0.509490000000     0.325100000000     0.0228837  
C99      C      0.967040000000     0.525310000000     0.316650000000    -0.0738504  
C100     C      0.967100000000     0.556050000000     0.316550000000     0.0365301  
C101     C      0.992500000000     0.571760000000     0.324520000000    -0.136145   
C102     C      0.017820000000     0.556060000000     0.332720000000     0.0387023  
C103     C      0.992160000000     0.476700000000     0.325400000000     0.0229676  
C104     C      0.017420000000     0.460740000000     0.317300000000    -0.0717481  
C105     C      0.017360000000     0.430010000000     0.317720000000     0.0387998  
C106     C      0.991930000000     0.414430000000     0.325860000000    -0.13628    
C107     C      0.966590000000     0.430270000000     0.333760000000     0.0364671  
C108     C      0.966760000000     0.461030000000     0.333720000000    -0.0737081  
C109     C      0.001000000000     0.858380000000     0.349810000000    -0.0723979  
C110     C      0.991450000000     0.842830000000     0.324880000000     0.0230584  
C111     C      0.981940000000     0.858580000000     0.300050000000    -0.0747265  
C112     C      0.982230000000     0.889330000000     0.300060000000     0.0367356  
C113     C      0.991600000000     0.904940000000     0.325080000000    -0.137261   
C114     C      0.000850000000     0.889130000000     0.350000000000     0.0392259  
C115     C      0.991520000000     0.810240000000     0.324740000000     0.0229103  
C116     C      0.016630000000     0.794640000000     0.333730000000    -0.0722972  
C117     C      0.016810000000     0.763900000000     0.333390000000     0.0387499  
C118     C      0.991720000000     0.748140000000     0.324500000000    -0.136281   
C119     C      0.966520000000     0.763790000000     0.315730000000     0.0364614  
C120     C      0.966520000000     0.794550000000     0.315620000000    -0.0743077  
C121     C      0.983480000000     0.634440000000     0.125960000000    -0.0744777  
C122     C      0.993020000000     0.659380000000     0.141510000000     0.0230354  
C123     C      0.002540000000     0.684200000000     0.125760000000    -0.0721745  
C124     C      0.002250000000     0.684190000000     0.095000000000     0.0390412  
C125     C      0.992890000000     0.659170000000     0.079400000000    -0.136542   
C126     C      0.983640000000     0.634240000000     0.095210000000     0.036655   
C127     C      0.992940000000     0.659530000000     0.174090000000     0.0229845  
C128     C      0.967830000000     0.650540000000     0.189690000000    -0.0744663  
C129     C      0.967630000000     0.650900000000     0.220430000000     0.0366549  
C130     C      0.992710000000     0.659790000000     0.236200000000    -0.136407   
C131     C      0.017920000000     0.668550000000     0.220560000000     0.0388178  
C132     C      0.017940000000     0.668650000000     0.189800000000    -0.0721215  
C133     C      0.966850000000     0.317380000000     0.460680000000    -0.0739043  
C134     C      0.992130000000     0.325470000000     0.476620000000     0.0229344  
C135     C      0.017520000000     0.333790000000     0.460930000000    -0.0715105  
C136     C      0.017660000000     0.333820000000     0.430170000000     0.0387159  
C137     C      0.992320000000     0.325930000000     0.414350000000    -0.136149   
C138     C      0.966890000000     0.317800000000     0.429940000000     0.0365075  
C139     C      0.992010000000     0.325180000000     0.509410000000     0.0229663  
C140     C      0.966650000000     0.333290000000     0.525230000000    -0.0737349  
C141     C      0.966500000000     0.332810000000     0.555990000000     0.036529   
C142     C      0.991820000000     0.324600000000     0.571680000000    -0.136264   
C143     C      0.017220000000     0.316630000000     0.555960000000     0.0387046  
C144     C      0.017260000000     0.316730000000     0.525210000000    -0.071682   
C145     C      0.017730000000     0.315710000000     0.794490000000    -0.0721398  
C146     C      0.992710000000     0.324820000000     0.810160000000     0.0229041  
C147     C      0.967610000000     0.333800000000     0.794540000000    -0.0744474  
C148     C      0.967450000000     0.333470000000     0.763800000000     0.0364847  
C149     C      0.992560000000     0.324590000000     0.748060000000    -0.136229   
C150     C      0.017750000000     0.315830000000     0.763730000000     0.0387147  
C151     C      0.992750000000     0.324960000000     0.842750000000     0.0230968  
C152     C      0.002260000000     0.300140000000     0.858500000000    -0.0724147  
C153     C      0.001920000000     0.300140000000     0.889260000000     0.0391567  
C154     C      0.992530000000     0.325150000000     0.904850000000    -0.137212   
C155     C      0.983290000000     0.350080000000     0.889040000000     0.0367784  
C156     C      0.983170000000     0.349890000000     0.858290000000    -0.0747626  
C157     C      0.981900000000     0.125830000000     0.684130000000    -0.0744342  
C158     C      0.991400000000     0.141580000000     0.659310000000     0.0230374  
C159     C      0.000970000000     0.126040000000     0.634380000000    -0.0721623  
C160     C      0.000850000000     0.095290000000     0.634190000000     0.0391272  
C161     C      0.991610000000     0.079480000000     0.659120000000    -0.13666    
C162     C      0.982220000000     0.095070000000     0.684130000000     0.0366463  
C163     C      0.991460000000     0.174170000000     0.659460000000     0.0229916  
C164     C      0.966440000000     0.189860000000     0.668570000000    -0.0743609  
C165     C      0.966440000000     0.220620000000     0.668460000000     0.0365415  
C166     C      0.991640000000     0.236280000000     0.659710000000    -0.136271   
C167     C      0.016740000000     0.220530000000     0.650830000000     0.0387564  
C168     C      0.016560000000     0.189780000000     0.650480000000    -0.0722435  
C169     C      0.966880000000     0.667050000000     0.523590000000    -0.0739073  
C170     C      0.992150000000     0.658960000000     0.507640000000     0.0229014  
C171     C      0.017540000000     0.650630000000     0.523310000000    -0.071379   
C172     C      0.017710000000     0.650580000000     0.554070000000     0.0385775  
C173     C      0.992370000000     0.658480000000     0.569900000000    -0.136106   
C174     C      0.966940000000     0.666620000000     0.554330000000     0.036514   
C175     C      0.992020000000     0.659270000000     0.474840000000     0.0229565  
C176     C      0.966660000000     0.651170000000     0.459020000000    -0.0736826  
C177     C      0.966510000000     0.651650000000     0.428260000000     0.0364408  
C178     C      0.991840000000     0.659860000000     0.412580000000    -0.136198   
C179     C      0.017230000000     0.667820000000     0.428300000000     0.038764   
C180     C      0.017270000000     0.667720000000     0.459040000000    -0.0717273  
C181     C      0.966800000000     0.523400000000     0.650550000000    -0.0737014  
C182     C      0.992180000000     0.507720000000     0.658880000000     0.022953   
C183     C      0.017460000000     0.523660000000     0.666960000000    -0.0717514  
C184     C      0.017420000000     0.554390000000     0.666540000000     0.0387901  
C185     C      0.992000000000     0.569980000000     0.658400000000    -0.136208   
C186     C      0.966650000000     0.554160000000     0.650520000000     0.0364578  
C187     C      0.992290000000     0.474920000000     0.659180000000     0.0229244  
C188     C      0.967040000000     0.459130000000     0.667630000000    -0.0738705  
C189     C      0.967060000000     0.428390000000     0.667720000000     0.036443   
C190     C      0.992460000000     0.412660000000     0.659760000000    -0.136098   
C191     C      0.017790000000     0.428340000000     0.651550000000     0.038659   
C192     C      0.017650000000     0.459090000000     0.651070000000    -0.0714794  
C193     C      0.983210000000     0.856740000000     0.633410000000    -0.0747178  
C194     C      0.992740000000     0.841030000000     0.658250000000     0.0230591  
C195     C      0.002190000000     0.856620000000     0.683200000000    -0.0724781  
C196     C      0.001840000000     0.887370000000     0.683410000000     0.0392434  
C197     C      0.992490000000     0.903130000000     0.658490000000    -0.137367   
C198     C      0.983310000000     0.887490000000     0.633430000000     0.0368255  
C199     C      0.992730000000     0.808450000000     0.658160000000     0.0229355  
C200     C      0.967650000000     0.792860000000     0.649070000000    -0.0745524  
C201     C      0.967510000000     0.762120000000     0.649260000000     0.036638   
C202     C      0.992620000000     0.746350000000     0.658080000000    -0.136472   
C203     C      0.017800000000     0.761990000000     0.666920000000     0.0388547  
C204     C      0.017770000000     0.792750000000     0.667190000000    -0.072237   
C205     C      0.001410000000     0.633480000000     0.856650000000    -0.0724316  
C206     C      0.991860000000     0.658320000000     0.840950000000     0.0230882  
C207     C      0.982430000000     0.683270000000     0.856540000000    -0.0747727  
C208     C      0.982790000000     0.683480000000     0.887290000000     0.0368006  
C209     C      0.992140000000     0.658560000000     0.903050000000    -0.13732    
C210     C      0.001320000000     0.633500000000     0.887400000000     0.0392062  
C211     C      0.991840000000     0.658230000000     0.808370000000     0.0229026  
C212     C      0.016910000000     0.649140000000     0.792760000000    -0.0722855  
C213     C      0.017030000000     0.649320000000     0.762020000000     0.0387668  
C214     C      0.991910000000     0.658150000000     0.746280000000    -0.136323   
C215     C      0.966740000000     0.667000000000     0.761940000000     0.036521   
C216     C      0.966800000000     0.667270000000     0.792690000000    -0.0744009  
C217     C      0.793600000000     0.967810000000     0.334580000000    -0.0743887  
C218     C      0.809060000000     0.992990000000     0.325550000000     0.0228839  
C219     C      0.793220000000     0.017920000000     0.316460000000    -0.0721233  
C220     C      0.762460000000     0.017750000000     0.316630000000     0.0386968  
C221     C      0.746960000000     0.992470000000     0.325430000000    -0.136155   
C222     C      0.762860000000     0.967460000000     0.334300000000     0.0364415  
C223     C      0.841640000000     0.993220000000     0.325580000000     0.0230463  
C224     C      0.857330000000     0.983730000000     0.350450000000    -0.0747059  
C225     C      0.888080000000     0.984020000000     0.350520000000     0.036773   
C226     C      0.903740000000     0.993340000000     0.325530000000    -0.13721    
C227     C      0.888000000000     0.002650000000     0.300580000000     0.0391309  
C228     C      0.857250000000     0.002810000000     0.300700000000    -0.0723084  
C229     C      0.683440000000     0.981300000000     0.126730000000    -0.0745452  
C230     C      0.658530000000     0.990680000000     0.142420000000     0.0230833  
C231     C      0.633610000000     0.000180000000     0.126820000000    -0.0722138  
C232     C      0.633520000000     0.000130000000     0.096070000000     0.0392205  
C233     C      0.658550000000     0.991050000000     0.080320000000    -0.136891   
C234     C      0.683540000000     0.981710000000     0.095980000000     0.0367996  
C235     C      0.658590000000     0.990740000000     0.175010000000     0.0230085  
C236     C      0.667770000000     0.965760000000     0.190720000000    -0.0743517  
C237     C      0.667610000000     0.965780000000     0.221480000000     0.0365146  
C238     C      0.658720000000     0.990960000000     0.237110000000    -0.136329   
C239     C      0.649760000000     0.016010000000     0.221330000000     0.0388353  
C240     C      0.649470000000     0.015810000000     0.190590000000    -0.0723042  
C241     C      0.524120000000     0.965680000000     0.333550000000    -0.0737276  
C242     C      0.508320000000     0.990990000000     0.325220000000     0.0229595  
C243     C      0.524150000000     0.016200000000     0.316710000000    -0.0717442  
C244     C      0.554880000000     0.016210000000     0.316840000000     0.0389005  
C245     C      0.570590000000     0.990900000000     0.325080000000    -0.136405   
C246     C      0.554880000000     0.965580000000     0.333290000000     0.036542   
C247     C      0.475520000000     0.991160000000     0.325410000000     0.0229876  
C248     C      0.459520000000     0.965890000000     0.317400000000    -0.0738414  
C249     C      0.428770000000     0.966080000000     0.317610000000     0.0365463  
C250     C      0.413260000000     0.991650000000     0.325440000000    -0.136141   
C251     C      0.429160000000     0.016950000000     0.333320000000     0.0387805  
C252     C      0.459900000000     0.016650000000     0.333500000000    -0.0715963  
C253     C      0.126590000000     0.002390000000     0.350080000000    -0.0721096  
C254     C      0.142200000000     0.993070000000     0.325100000000     0.023042   
C255     C      0.126510000000     0.983710000000     0.300180000000    -0.0744703  
C256     C      0.095760000000     0.983890000000     0.300150000000     0.0366613  
C257     C      0.080100000000     0.992990000000     0.325230000000    -0.136609   
C258     C      0.095840000000     0.002130000000     0.350240000000     0.0391042  
C259     C      0.174780000000     0.993020000000     0.325070000000     0.0229634  
C260     C      0.190500000000     0.017950000000     0.334340000000    -0.0721256  
C261     C      0.221260000000     0.017960000000     0.334140000000     0.0386512  
C262     C      0.236890000000     0.992840000000     0.325110000000    -0.136334   
C263     C      0.221110000000     0.967820000000     0.316030000000     0.0365341  
C264     C      0.190370000000     0.968000000000     0.315790000000    -0.0744075  
C265     C      0.334540000000     0.968040000000     0.190590000000    -0.0744256  
C266     C      0.325530000000     0.993160000000     0.175020000000     0.0229651  
C267     C      0.316420000000     0.018150000000     0.190750000000    -0.0720513  
C268     C      0.316540000000     0.018110000000     0.221510000000     0.038723   
C269     C      0.325320000000     0.992890000000     0.237120000000    -0.136214   
C270     C      0.334210000000     0.967820000000     0.221340000000     0.0365446  
C271     C      0.325630000000     0.993260000000     0.142440000000     0.0231151  
C272     C      0.350550000000     0.983750000000     0.126850000000    -0.0745439  
C273     C      0.350680000000     0.983870000000     0.096100000000     0.0367591  
C274     C      0.325700000000     0.993070000000     0.080340000000    -0.1367     
C275     C      0.300700000000     0.002420000000     0.095980000000     0.0391347  
C276     C      0.300760000000     0.002740000000     0.126740000000    -0.0722108  
C277     C      0.316730000000     0.017580000000     0.524340000000    -0.0714701  
C278     C      0.324970000000     0.992220000000     0.508560000000     0.0229035  
C279     C      0.333300000000     0.966970000000     0.524400000000    -0.0738456  
C280     C      0.333190000000     0.966990000000     0.555140000000     0.0364954  
C281     C      0.325120000000     0.992380000000     0.570830000000    -0.136194   
C282     C      0.316990000000     0.017710000000     0.555100000000     0.0385782  
C283     C      0.324950000000     0.992140000000     0.475770000000     0.0229327  
C284     C      0.316670000000     0.966790000000     0.460000000000    -0.073732   
C285     C      0.316900000000     0.966660000000     0.429240000000     0.036354   
C286     C      0.325020000000     0.991990000000     0.413500000000    -0.136239   
C287     C      0.333130000000     0.017370000000     0.429180000000     0.0387206  
C288     C      0.333270000000     0.017390000000     0.459920000000    -0.0716813  
C289     C      0.334640000000     0.016320000000     0.793740000000    -0.0722017  
C290     C      0.325640000000     0.991190000000     0.809310000000     0.0228375  
C291     C      0.316540000000     0.966200000000     0.793580000000    -0.0742719  
C292     C      0.316670000000     0.966240000000     0.762820000000     0.0364254  
C293     C      0.325440000000     0.991460000000     0.747210000000    -0.136193   
C294     C      0.334320000000     0.016540000000     0.763000000000     0.0386343  
C295     C      0.325710000000     0.991100000000     0.841890000000     0.0231016  
C296     C      0.350610000000     0.000650000000     0.857490000000    -0.072434   
C297     C      0.350720000000     0.000520000000     0.888240000000     0.039195   
C298     C      0.325750000000     0.991300000000     0.903990000000    -0.137106   
C299     C      0.300770000000     0.981920000000     0.888330000000     0.0366648  
C300     C      0.300850000000     0.981600000000     0.857580000000    -0.0746951  
C301     C      0.126730000000     0.982100000000     0.634150000000    -0.0744829  
C302     C      0.142330000000     0.991430000000     0.659140000000     0.0230699  
C303     C      0.126630000000     0.000790000000     0.684050000000    -0.0722319  
C304     C      0.095880000000     0.000610000000     0.684070000000     0.0391529  
C305     C      0.080220000000     0.991510000000     0.658990000000    -0.136781   
C306     C      0.095980000000     0.982370000000     0.633980000000     0.0367322  
C307     C      0.174910000000     0.991450000000     0.659190000000     0.0229225  
C308     C      0.190610000000     0.966500000000     0.649930000000    -0.0743251  
C309     C      0.221370000000     0.966470000000     0.650160000000     0.0364018  
C310     C      0.237020000000     0.991580000000     0.659200000000    -0.136288   
C311     C      0.221250000000     0.016610000000     0.668260000000     0.0386998  
C312     C      0.190510000000     0.016450000000     0.668480000000    -0.0721237  
C313     C      0.650540000000     0.966810000000     0.524390000000    -0.0737773  
C314     C      0.658760000000     0.992130000000     0.508550000000     0.0229939  
C315     C      0.667060000000     0.017440000000     0.524330000000    -0.0717885  
C316     C      0.666920000000     0.017500000000     0.555070000000     0.0388495  
C317     C      0.658860000000     0.992150000000     0.570820000000    -0.136474   
C318     C      0.650780000000     0.966770000000     0.555150000000     0.0366067  
C319     C      0.658750000000     0.992120000000     0.475750000000     0.0228763  
C320     C      0.667030000000     0.966810000000     0.459970000000    -0.0738148  
C321     C      0.666870000000     0.966730000000     0.429230000000     0.0364153  
C322     C      0.658800000000     0.992080000000     0.413480000000    -0.136022   
C323     C      0.650730000000     0.017470000000     0.429150000000     0.0385556  
C324     C      0.650510000000     0.017430000000     0.459910000000    -0.0714053  
C325     C      0.459660000000     0.018360000000     0.666950000000    -0.0716159  
C326     C      0.475650000000     0.993080000000     0.658940000000     0.0229589  
C327     C      0.460010000000     0.967610000000     0.650830000000    -0.0737879  
C328     C      0.429270000000     0.967330000000     0.651010000000     0.0365572  
C329     C      0.413390000000     0.992640000000     0.658890000000    -0.136161   
C330     C      0.428910000000     0.018190000000     0.666740000000     0.0387637  
C331     C      0.508450000000     0.993230000000     0.659120000000     0.0229252  
C332     C      0.524250000000     0.018540000000     0.650790000000    -0.0713874  
C333     C      0.555020000000     0.018640000000     0.651050000000     0.0385908  
C334     C      0.570720000000     0.993310000000     0.659250000000    -0.136168   
C335     C      0.555000000000     0.967990000000     0.667480000000     0.036519   
C336     C      0.524270000000     0.968020000000     0.667610000000    -0.0739009  
C337     C      0.793360000000     0.966290000000     0.667740000000    -0.0744439  
C338     C      0.809180000000     0.991230000000     0.658650000000     0.0229343  
C339     C      0.793710000000     0.016410000000     0.649640000000    -0.0723556  
C340     C      0.762970000000     0.016740000000     0.649930000000     0.0388581  
C341     C      0.747080000000     0.991730000000     0.658810000000    -0.136563   
C342     C      0.762600000000     0.966450000000     0.667590000000     0.0366091  
C343     C      0.841770000000     0.991020000000     0.658620000000     0.0230931  
C344     C      0.857380000000     0.981430000000     0.683490000000    -0.0747325  
C345     C      0.888140000000     0.981630000000     0.683610000000     0.0367284  
C346     C      0.903870000000     0.990960000000     0.658660000000    -0.137278   
C347     C      0.888190000000     0.000270000000     0.633680000000     0.0392548  
C348     C      0.857440000000     0.000520000000     0.633750000000    -0.0724595  
C349     C      0.667890000000     0.018350000000     0.793600000000    -0.07208    
C350     C      0.658720000000     0.993360000000     0.809290000000     0.0228503  
C351     C      0.649640000000     0.968290000000     0.793690000000    -0.0743911  
C352     C      0.649930000000     0.968110000000     0.762950000000     0.03646    
C353     C      0.658880000000     0.993180000000     0.747190000000    -0.136214   
C354     C      0.667740000000     0.018350000000     0.762830000000     0.0386524  
C355     C      0.658640000000     0.993400000000     0.841880000000     0.0230776  
C356     C      0.683530000000     0.002800000000     0.857590000000    -0.0723914  
C357     C      0.683610000000     0.002380000000     0.888350000000     0.0391142  
C358     C      0.658620000000     0.992990000000     0.903980000000    -0.137247   
C359     C      0.633620000000     0.983880000000     0.888200000000     0.036775   
C360     C      0.633730000000     0.983860000000     0.857460000000    -0.0747279  
C361     C      0.316690000000     0.793630000000     0.018510000000    -0.0721039  
C362     C      0.325870000000     0.809330000000     0.993530000000     0.0228755  
C363     C      0.334990000000     0.793740000000     0.968460000000    -0.0744609  
C364     C      0.334710000000     0.763000000000     0.968280000000     0.0365834  
C365     C      0.325760000000     0.747230000000     0.993340000000    -0.136339   
C366     C      0.316870000000     0.762870000000     0.018510000000     0.0387216  
C367     C      0.325900000000     0.841920000000     0.993560000000     0.0231516  
C368     C      0.300980000000     0.857600000000     0.002940000000    -0.072484   
C369     C      0.300860000000     0.888350000000     0.002520000000     0.0392445  
C370     C      0.325840000000     0.904020000000     0.993150000000    -0.137425   
C371     C      0.350870000000     0.888280000000     0.984070000000     0.0369015  
C372     C      0.350810000000     0.857530000000     0.984050000000    -0.0748469  
C373     C      0.191240000000     0.667880000000     0.966400000000    -0.0743913  
C374     C      0.175400000000     0.658790000000     0.991330000000     0.0230157  
C375     C      0.190860000000     0.649770000000     0.016510000000    -0.0722526  
C376     C      0.221600000000     0.650050000000     0.016860000000     0.0387712  
C377     C      0.237500000000     0.658930000000     0.991850000000    -0.136335   
C378     C      0.222000000000     0.667720000000     0.966570000000     0.0365982  
C379     C      0.142820000000     0.658750000000     0.991090000000     0.0230301  
C380     C      0.127200000000     0.683620000000     0.981490000000    -0.0744656  
C381     C      0.096450000000     0.683730000000     0.981650000000     0.0366493  
C382     C      0.080720000000     0.658770000000     0.990970000000    -0.136652   
C383     C      0.096390000000     0.633790000000     0.000290000000     0.0391684  
C384     C      0.127140000000     0.633870000000     0.000580000000    -0.0721774  
C385     C      0.524550000000     0.650740000000     0.967710000000    -0.073803   
C386     C      0.508930000000     0.658850000000     0.993200000000     0.0229606  
C387     C      0.524940000000     0.666850000000     0.018470000000    -0.0716135  
C388     C      0.555690000000     0.666620000000     0.018290000000     0.0387596  
C389     C      0.571200000000     0.658780000000     0.992720000000    -0.136263   
C390     C      0.555300000000     0.650900000000     0.967420000000     0.0365862  
C391     C      0.476140000000     0.659050000000     0.993360000000     0.0228952  
C392     C      0.460310000000     0.667560000000     0.968150000000    -0.0738712  
C393     C      0.429580000000     0.667450000000     0.968130000000     0.0365633  
C394     C      0.413870000000     0.659220000000     0.993450000000    -0.136234   
C395     C      0.429570000000     0.651010000000     0.018770000000     0.0386918  
C396     C      0.460330000000     0.650730000000     0.018670000000    -0.0714337  
C397     C      0.649930000000     0.793590000000     0.016350000000    -0.0722381  
C398     C      0.658920000000     0.809160000000     0.991220000000     0.0228596  
C399     C      0.668040000000     0.793440000000     0.966230000000    -0.0743427  
C400     C      0.667930000000     0.762680000000     0.966280000000     0.0364319  
C401     C      0.659160000000     0.747060000000     0.991500000000    -0.136245   
C402     C      0.650280000000     0.762840000000     0.016580000000     0.0386556  
C403     C      0.658810000000     0.841740000000     0.991120000000     0.0230644  
C404     C      0.633880000000     0.857320000000     0.000640000000    -0.0724255  
C405     C      0.633730000000     0.888070000000     0.000500000000     0.0392658  
C406     C      0.658690000000     0.903840000000     0.991290000000    -0.137357   
C407     C      0.683690000000     0.888210000000     0.981930000000     0.0367914  
C408     C      0.683660000000     0.857460000000     0.981620000000    -0.0747701  
C409     C      0.794090000000     0.668360000000     0.016400000000    -0.0722526  
C410     C      0.809670000000     0.659100000000     0.991380000000     0.0228688  
C411     C      0.793960000000     0.649820000000     0.966440000000    -0.0744202  
C412     C      0.763200000000     0.650020000000     0.966440000000     0.0364473  
C413     C      0.747570000000     0.659050000000     0.991560000000    -0.136445   
C414     C      0.763340000000     0.668120000000     0.016570000000     0.0387842  
C415     C      0.842260000000     0.659080000000     0.991330000000     0.0230803  
C416     C      0.857930000000     0.684010000000     0.000690000000    -0.0725398  
C417     C      0.888690000000     0.684050000000     0.000490000000     0.0392221  
C418     C      0.904360000000     0.658990000000     0.991390000000    -0.137277   
C419     C      0.888630000000     0.633970000000     0.982240000000     0.0367499  
C420     C      0.857880000000     0.634110000000     0.981990000000    -0.0746979  
C421     C      0.333840000000     0.524420000000     0.966930000000    -0.0736809  
C422     C      0.325590000000     0.508590000000     0.992240000000     0.022931   
C423     C      0.317320000000     0.524380000000     0.017560000000    -0.0716741  
C424     C      0.317520000000     0.555120000000     0.017630000000     0.038639   
C425     C      0.325610000000     0.570860000000     0.992270000000    -0.13618    
C426     C      0.333670000000     0.555170000000     0.966890000000     0.0364653  
C427     C      0.325530000000     0.475790000000     0.992240000000     0.022944   
C428     C      0.317220000000     0.460020000000     0.966920000000    -0.0738895  
C429     C      0.317320000000     0.429280000000     0.966850000000     0.0365476  
C430     C      0.325350000000     0.413530000000     0.992200000000    -0.136197   
C431     C      0.333460000000     0.429180000000     0.017590000000     0.0386372  
C432     C      0.333730000000     0.459940000000     0.017550000000    -0.0714583  
C433     C      0.190450000000     0.334730000000     0.967910000000    -0.0744448  
C434     C      0.174980000000     0.325700000000     0.993080000000     0.0230098  
C435     C      0.190810000000     0.316610000000     0.018020000000    -0.0720787  
C436     C      0.221570000000     0.316770000000     0.017870000000     0.0387875  
C437     C      0.237080000000     0.325550000000     0.992590000000    -0.136321   
C438     C      0.221200000000     0.334430000000     0.967580000000     0.0366071  
C439     C      0.142400000000     0.325720000000     0.993290000000     0.0230406  
C440     C      0.126710000000     0.350590000000     0.983780000000    -0.0744305  
C441     C      0.095960000000     0.350650000000     0.984040000000     0.0366805  
C442     C      0.080300000000     0.325650000000     0.993350000000    -0.136613   
C443     C      0.096040000000     0.300710000000     0.002680000000     0.0391258  
C444     C      0.126790000000     0.300840000000     0.002880000000    -0.0721614  
C445     C      0.316270000000     0.190750000000     0.965910000000    -0.0744589  
C446     C      0.325460000000     0.175050000000     0.990890000000     0.0230876  
C447     C      0.334540000000     0.190640000000     0.015970000000    -0.072366   
C448     C      0.334230000000     0.221380000000     0.016160000000     0.0389467  
C449     C      0.325280000000     0.237150000000     0.991100000000    -0.136539   
C450     C      0.316410000000     0.221510000000     0.965930000000     0.0367068  
C451     C      0.325560000000     0.142460000000     0.990830000000     0.0230766  
C452     C      0.300680000000     0.126730000000     0.981430000000    -0.0745217  
C453     C      0.300630000000     0.095980000000     0.981830000000     0.0367421  
C454     C      0.325640000000     0.080360000000     0.991190000000    -0.136679   
C455     C      0.350630000000     0.096150000000     0.000310000000     0.0391702  
C456     C      0.350500000000     0.126900000000     0.000350000000    -0.0722331  
C457     C      0.667670000000     0.524170000000     0.017590000000    -0.0715256  
C458     C      0.659380000000     0.508410000000     0.992240000000     0.0229146  
C459     C      0.651080000000     0.524270000000     0.966990000000    -0.0738565  
C460     C      0.651250000000     0.555010000000     0.967010000000     0.0365237  
C461     C      0.659380000000     0.570680000000     0.992390000000    -0.136237   
C462     C      0.667480000000     0.554930000000     0.017720000000     0.0385877  
C463     C      0.659320000000     0.475620000000     0.992150000000     0.0229117  
C464     C      0.667540000000     0.459830000000     0.966800000000    -0.0736985  
C465     C      0.667250000000     0.429070000000     0.966670000000     0.0363377  
C466     C      0.659100000000     0.413350000000     0.992000000000    -0.136257   
C467     C      0.651030000000     0.429050000000     0.017380000000     0.0387546  
C468     C      0.650960000000     0.459790000000     0.017410000000    -0.0717354  
C469     C      0.459920000000     0.333490000000     0.965800000000    -0.0736645  
C470     C      0.475720000000     0.325150000000     0.991110000000     0.0229589  
C471     C      0.459890000000     0.316650000000     0.016320000000    -0.0717779  
C472     C      0.429160000000     0.316800000000     0.016340000000     0.0388725  
C473     C      0.413450000000     0.325050000000     0.991030000000    -0.136358   
C474     C      0.429160000000     0.333250000000     0.965700000000     0.0364724  
C475     C      0.508520000000     0.325310000000     0.991260000000     0.0229562  
C476     C      0.524510000000     0.317290000000     0.965990000000    -0.0737686  
C477     C      0.555260000000     0.317490000000     0.966160000000     0.0365327  
C478     C      0.570780000000     0.325320000000     0.991720000000    -0.136116   
C479     C      0.554900000000     0.333200000000     0.017030000000     0.0387548  
C480     C      0.524150000000     0.333400000000     0.016750000000    -0.0715864  
C481     C      0.793660000000     0.315690000000     0.967930000000    -0.0744647  
C482     C      0.809260000000     0.324990000000     0.992930000000     0.0228674  
C483     C      0.793550000000     0.334250000000     0.017880000000    -0.0721912  
C484     C      0.762800000000     0.334010000000     0.017910000000     0.0386934  
C485     C      0.747150000000     0.324960000000     0.992800000000    -0.136525   
C486     C      0.762920000000     0.315900000000     0.967780000000     0.0366207  
C487     C      0.841840000000     0.325060000000     0.992950000000     0.0230644  
C488     C      0.857550000000     0.300160000000     0.983590000000    -0.0747147  
C489     C      0.888300000000     0.300150000000     0.983760000000     0.0367385  
C490     C      0.903940000000     0.325240000000     0.992850000000    -0.137202   
C491     C      0.888180000000     0.350240000000     0.002000000000     0.0391584  
C492     C      0.857430000000     0.350060000000     0.002270000000    -0.0724028  
C493     C      0.649530000000     0.190440000000     0.968050000000    -0.0744301  
C494     C      0.658540000000     0.174870000000     0.993170000000     0.0229785  
C495     C      0.667640000000     0.190600000000     0.018170000000    -0.0721511  
C496     C      0.667490000000     0.221360000000     0.018130000000     0.0387662  
C497     C      0.658720000000     0.236970000000     0.992910000000    -0.136253   
C498     C      0.649840000000     0.221190000000     0.967840000000     0.0365585  
C499     C      0.658490000000     0.142290000000     0.993260000000     0.0230669  
C500     C      0.633600000000     0.126670000000     0.983720000000    -0.0744929  
C501     C      0.633510000000     0.095920000000     0.983830000000     0.0367717  
C502     C      0.658500000000     0.080190000000     0.993040000000    -0.136724   
C503     C      0.683470000000     0.095860000000     0.002410000000     0.0391054  
C504     C      0.683370000000     0.126620000000     0.002750000000    -0.0721834  
H1       H      0.975770000000     0.139190000000     0.370390000000     0.0466799  
H2       H      0.975700000000     0.085420000000     0.370290000000     0.0284073  
H3       H      0.008900000000     0.085650000000     0.281180000000     0.0290128  
H4       H      0.009210000000     0.139430000000     0.281510000000     0.0471721  
H5       H      0.037210000000     0.180120000000     0.310070000000     0.0468592  
H6       H      0.037250000000     0.233920000000     0.310290000000     0.0283247  
H7       H      0.947610000000     0.233720000000     0.342030000000     0.0279788  
H8       H      0.947790000000     0.179950000000     0.342060000000     0.0466389  
H9       H      0.036250000000     0.342130000000     0.179830000000     0.0467452  
H10      H      0.036480000000     0.342110000000     0.233600000000     0.0279795  
H11      H      0.946830000000     0.310400000000     0.233880000000     0.0282906  
H12      H      0.946830000000     0.310180000000     0.180080000000     0.0467954  
H13      H      0.974800000000     0.281600000000     0.139360000000     0.0466673  
H14      H      0.975100000000     0.281270000000     0.085570000000     0.0284468  
H15      H      0.008290000000     0.370380000000     0.085330000000     0.0289656  
H16      H      0.008230000000     0.370480000000     0.139100000000     0.0471892  
H17      H      0.947270000000     0.513970000000     0.309710000000     0.0456829  
H18      H      0.947280000000     0.567490000000     0.309870000000     0.0280677  
H19      H      0.037680000000     0.567530000000     0.339220000000     0.0283292  
H20      H      0.037360000000     0.513980000000     0.340350000000     0.0458748  
H21      H      0.037210000000     0.471950000000     0.310220000000     0.0457891  
H22      H      0.037180000000     0.418450000000     0.311270000000     0.0280438  
H23      H      0.946700000000     0.418920000000     0.340360000000     0.0283056  
H24      H      0.947050000000     0.472490000000     0.340610000000     0.0458154  
H25      H      0.974650000000     0.847080000000     0.280490000000     0.0464766  
H26      H      0.974880000000     0.900870000000     0.280550000000     0.0279632  
H27      H      0.008260000000     0.900510000000     0.369590000000     0.0285023  
H28      H      0.008270000000     0.846730000000     0.369300000000     0.0469531  
H29      H      0.036260000000     0.806240000000     0.340670000000     0.0466122  
H30      H      0.036540000000     0.752480000000     0.340360000000     0.0279489  
H31      H      0.946880000000     0.752290000000     0.308680000000     0.0282572  
H32      H      0.946820000000     0.806090000000     0.308750000000     0.0465631  
H33      H      0.009820000000     0.703770000000     0.137250000000     0.0470124  
H34      H      0.009600000000     0.703710000000     0.083460000000     0.0289562  
H35      H      0.976230000000     0.614660000000     0.083830000000     0.0284675  
H36      H      0.976220000000     0.614960000000     0.137610000000     0.0466918  
H37      H      0.948200000000     0.643590000000     0.178080000000     0.0466125  
H38      H      0.947890000000     0.643930000000     0.231840000000     0.0279709  
H39      H      0.037560000000     0.675610000000     0.232070000000     0.0282881  
H40      H      0.037640000000     0.675510000000     0.178260000000     0.0467947  
H41      H      0.037240000000     0.340670000000     0.472370000000     0.0459091  
H42      H      0.037540000000     0.340420000000     0.418800000000     0.0283104  
H43      H      0.947060000000     0.311350000000     0.418400000000     0.0280974  
H44      H      0.947070000000     0.310300000000     0.471900000000     0.0457121  
H45      H      0.946950000000     0.340440000000     0.513910000000     0.0458142  
H46      H      0.946640000000     0.339310000000     0.567460000000     0.0283043  
H47      H      0.037030000000     0.309950000000     0.567390000000     0.0280388  
H48      H      0.037030000000     0.309790000000     0.513880000000     0.0457799  
H49      H      0.947970000000     0.340740000000     0.806130000000     0.0464972  
H50      H      0.947730000000     0.340430000000     0.752370000000     0.0279685  
H51      H      0.037400000000     0.308780000000     0.752230000000     0.0282901  
H52      H      0.037420000000     0.308860000000     0.806040000000     0.0467168  
H53      H      0.009560000000     0.280570000000     0.847020000000     0.0469355  
H54      H      0.009270000000     0.280630000000     0.900810000000     0.0285268  
H55      H      0.975850000000     0.369660000000     0.900410000000     0.0279411  
H56      H      0.975910000000     0.369370000000     0.846640000000     0.0465443  
H57      H      0.008240000000     0.137700000000     0.614900000000     0.047114   
H58      H      0.008290000000     0.083920000000     0.614610000000     0.0290056  
H59      H      0.974880000000     0.083530000000     0.703640000000     0.0283797  
H60      H      0.974590000000     0.137320000000     0.703700000000     0.0465199  
H61      H      0.946750000000     0.178310000000     0.675420000000     0.0467036  
H62      H      0.946790000000     0.232110000000     0.675510000000     0.0282628  
H63      H      0.036470000000     0.231950000000     0.643870000000     0.028007   
H64      H      0.036200000000     0.178190000000     0.643540000000     0.0467108  
H65      H      0.037260000000     0.643740000000     0.511850000000     0.0458376  
H66      H      0.037590000000     0.643980000000     0.565420000000     0.0283345  
H67      H      0.947120000000     0.673080000000     0.565880000000     0.0280577  
H68      H      0.947090000000     0.674140000000     0.512390000000     0.0456723  
H69      H      0.946950000000     0.644030000000     0.470340000000     0.0457803  
H70      H      0.946650000000     0.645160000000     0.416790000000     0.0283144  
H71      H      0.037050000000     0.674490000000     0.416870000000     0.0279999  
H72      H      0.037040000000     0.674650000000     0.470380000000     0.0457542  
H73      H      0.037240000000     0.512430000000     0.674040000000     0.0457559  
H74      H      0.037260000000     0.565930000000     0.672990000000     0.0280151  
H75      H      0.946770000000     0.565530000000     0.643910000000     0.0282924  
H76      H      0.947070000000     0.511960000000     0.643670000000     0.0457919  
H77      H      0.947270000000     0.470470000000     0.674560000000     0.0456582  
H78      H      0.947250000000     0.416950000000     0.674400000000     0.028053   
H79      H      0.037640000000     0.416860000000     0.645060000000     0.0283308  
H80      H      0.037350000000     0.470410000000     0.643920000000     0.045877   
H81      H      0.009460000000     0.844990000000     0.702690000000     0.046882   
H82      H      0.009130000000     0.898780000000     0.703020000000     0.028417   
H83      H      0.975900000000     0.898990000000     0.613920000000     0.0279299  
H84      H      0.976000000000     0.845210000000     0.613830000000     0.0465291  
H85      H      0.948010000000     0.804480000000     0.642190000000     0.0465327  
H86      H      0.947800000000     0.750710000000     0.642230000000     0.0279131  
H87      H      0.037460000000     0.750480000000     0.673920000000     0.0282441  
H88      H      0.037440000000     0.804280000000     0.674120000000     0.0467258  
H89      H      0.975140000000     0.702770000000     0.844930000000     0.0463961  
H90      H      0.975490000000     0.703090000000     0.898710000000     0.0278522  
H91      H      0.008730000000     0.613990000000     0.898900000000     0.0285065  
H92      H      0.008620000000     0.613900000000     0.845130000000     0.0469937  
H93      H      0.036560000000     0.642250000000     0.804360000000     0.0466065  
H94      H      0.036730000000     0.642290000000     0.750600000000     0.0279185  
H95      H      0.947080000000     0.674010000000     0.750440000000     0.0282332  
H96      H      0.947140000000     0.674210000000     0.804240000000     0.0465857  
H97      H      0.804640000000     0.037670000000     0.309570000000     0.0467123  
H98      H      0.750840000000     0.037330000000     0.309590000000     0.0283315  
H99      H      0.751560000000     0.947680000000     0.341300000000     0.0279777  
H100     H      0.805320000000     0.948240000000     0.341510000000     0.0464925  
H101     H      0.845790000000     0.976410000000     0.369980000000     0.0465218  
H102     H      0.899560000000     0.976630000000     0.370050000000     0.0279504  
H103     H      0.899430000000     0.010050000000     0.281020000000     0.0285521  
H104     H      0.845640000000     0.010060000000     0.281170000000     0.0468752  
H105     H      0.614060000000     0.007340000000     0.138430000000     0.0471334  
H106     H      0.613960000000     0.007530000000     0.084660000000     0.0290029  
H107     H      0.703120000000     0.974480000000     0.084480000000     0.0283404  
H108     H      0.703000000000     0.974060000000     0.138270000000     0.0465658  
H109     H      0.674730000000     0.946090000000     0.179200000000     0.0466977  
H110     H      0.674710000000     0.946170000000     0.233010000000     0.0282806  
H111     H      0.642690000000     0.035710000000     0.232720000000     0.0279969  
H112     H      0.642480000000     0.035410000000     0.178970000000     0.0467521  
H113     H      0.512840000000     0.035920000000     0.309570000000     0.0457608  
H114     H      0.566330000000     0.036010000000     0.310120000000     0.0280034  
H115     H      0.566350000000     0.945780000000     0.339970000000     0.0282617  
H116     H      0.512760000000     0.946010000000     0.340720000000     0.0458602  
H117     H      0.470700000000     0.946010000000     0.310530000000     0.0457341  
H118     H      0.417160000000     0.946280000000     0.311210000000     0.0280536  
H119     H      0.417860000000     0.036930000000     0.339730000000     0.0280416  
H120     H      0.471380000000     0.036360000000     0.340360000000     0.0458278  
H121     H      0.138050000000     0.976590000000     0.280580000000     0.0466251  
H122     H      0.084270000000     0.976650000000     0.280570000000     0.0284973  
H123     H      0.084410000000     0.009360000000     0.369860000000     0.0290275  
H124     H      0.138190000000     0.009530000000     0.369650000000     0.0471127  
H125     H      0.178980000000     0.037580000000     0.341420000000     0.0467874  
H126     H      0.232770000000     0.037540000000     0.341330000000     0.0282862  
H127     H      0.232510000000     0.948160000000     0.308860000000     0.0283508  
H128     H      0.178750000000     0.948430000000     0.308720000000     0.0467116  
H129     H      0.309550000000     0.037860000000     0.179230000000     0.0468132  
H130     H      0.309490000000     0.037740000000     0.233030000000     0.0283772  
H131     H      0.341180000000     0.948080000000     0.232730000000     0.0280424  
H132     H      0.341480000000     0.948430000000     0.178960000000     0.0466768  
H133     H      0.370060000000     0.976510000000     0.138460000000     0.0467231  
H134     H      0.370240000000     0.976460000000     0.084690000000     0.0284375  
H135     H      0.281150000000     0.009720000000     0.084480000000     0.0290119  
H136     H      0.281210000000     0.010000000000     0.138270000000     0.0471316  
H137     H      0.340320000000     0.947210000000     0.513090000000     0.0457588  
H138     H      0.339810000000     0.947170000000     0.566600000000     0.0282376  
H139     H      0.310430000000     0.037560000000     0.566540000000     0.0284133  
H140     H      0.309680000000     0.037290000000     0.512970000000     0.0458164  
H141     H      0.309620000000     0.947090000000     0.471380000000     0.0457506  
H142     H      0.310310000000     0.946820000000     0.417810000000     0.028383   
H143     H      0.339750000000     0.037180000000     0.417710000000     0.0282107  
H144     H      0.340320000000     0.037140000000     0.471220000000     0.0458554  
H145     H      0.309670000000     0.946490000000     0.805100000000     0.0465576  
H146     H      0.309630000000     0.946610000000     0.751300000000     0.0283067  
H147     H      0.341280000000     0.036280000000     0.751610000000     0.0280063  
H148     H      0.341560000000     0.035940000000     0.805370000000     0.0466206  
H149     H      0.370130000000     0.007900000000     0.845890000000     0.0469946  
H150     H      0.370280000000     0.007960000000     0.899670000000     0.0285388  
H151     H      0.281230000000     0.974600000000     0.899830000000     0.0279768  
H152     H      0.281310000000     0.974310000000     0.846040000000     0.0464666  
H153     H      0.138160000000     0.007910000000     0.703660000000     0.0470054  
H154     H      0.084380000000     0.007850000000     0.703650000000     0.0289491  
H155     H      0.084560000000     0.975140000000     0.614350000000     0.0284455  
H156     H      0.138340000000     0.974970000000     0.614590000000     0.0466959  
H157     H      0.179080000000     0.946880000000     0.642840000000     0.0466738  
H158     H      0.232880000000     0.946880000000     0.642970000000     0.0282844  
H159     H      0.232660000000     0.036260000000     0.675440000000     0.0283745  
H160     H      0.178900000000     0.036040000000     0.675550000000     0.0467339  
H161     H      0.674070000000     0.037170000000     0.512970000000     0.0457762  
H162     H      0.673510000000     0.037360000000     0.566490000000     0.0280008  
H163     H      0.644220000000     0.946940000000     0.566640000000     0.0282956  
H164     H      0.643500000000     0.947060000000     0.513080000000     0.0458094  
H165     H      0.674050000000     0.947070000000     0.471320000000     0.0456367  
H166     H      0.673450000000     0.946870000000     0.417810000000     0.0280946  
H167     H      0.644170000000     0.037290000000     0.417670000000     0.028383   
H168     H      0.643490000000     0.037180000000     0.471230000000     0.0458553  
H169     H      0.471480000000     0.947890000000     0.643970000000     0.0457327  
H170     H      0.417960000000     0.947360000000     0.644600000000     0.0280462  
H171     H      0.417310000000     0.038000000000     0.673150000000     0.028006   
H172     H      0.470860000000     0.038230000000     0.673830000000     0.0457675  
H173     H      0.512910000000     0.038230000000     0.643630000000     0.0458963  
H174     H      0.566490000000     0.038430000000     0.644380000000     0.0283119  
H175     H      0.566450000000     0.948190000000     0.674190000000     0.0280416  
H176     H      0.512960000000     0.948300000000     0.674740000000     0.0456408  
H177     H      0.805420000000     0.035980000000     0.642720000000     0.0466306  
H178     H      0.751660000000     0.036520000000     0.642960000000     0.0279081  
H179     H      0.751000000000     0.946860000000     0.674630000000     0.0282009  
H180     H      0.804790000000     0.946540000000     0.674620000000     0.0465778  
H181     H      0.845790000000     0.974180000000     0.703020000000     0.0463711  
H182     H      0.899580000000     0.974230000000     0.703170000000     0.0278838  
H183     H      0.899670000000     0.007670000000     0.614140000000     0.0285038  
H184     H      0.845900000000     0.007840000000     0.614220000000     0.0469862  
H185     H      0.642650000000     0.948670000000     0.805300000000     0.0464566  
H186     H      0.642890000000     0.948410000000     0.751550000000     0.0279874  
H187     H      0.674830000000     0.037980000000     0.751320000000     0.0282667  
H188     H      0.674830000000     0.038020000000     0.805140000000     0.0466431  
H189     H      0.703090000000     0.010080000000     0.846070000000     0.0468228  
H190     H      0.703180000000     0.009620000000     0.899860000000     0.0284427  
H191     H      0.614050000000     0.976460000000     0.899600000000     0.0279664  
H192     H      0.614190000000     0.976680000000     0.845840000000     0.0465106  
H193     H      0.341970000000     0.805360000000     0.948850000000     0.0465123  
H194     H      0.341770000000     0.751600000000     0.948580000000     0.0279695  
H195     H      0.309770000000     0.751350000000     0.038130000000     0.028286   
H196     H      0.309730000000     0.805160000000     0.038180000000     0.0466872  
H197     H      0.281440000000     0.846050000000     0.010200000000     0.0469658  
H198     H      0.281270000000     0.899840000000     0.009740000000     0.0285094  
H199     H      0.370420000000     0.899710000000     0.976660000000     0.0279327  
H200     H      0.370360000000     0.845940000000     0.976890000000     0.0465723  
H201     H      0.179140000000     0.642850000000     0.036080000000     0.0467303  
H202     H      0.232900000000     0.643070000000     0.036650000000     0.0279918  
H203     H      0.233610000000     0.674760000000     0.946990000000     0.0282824  
H204     H      0.179820000000     0.674770000000     0.946650000000     0.0467143  
H205     H      0.138790000000     0.703150000000     0.974250000000     0.0465414  
H206     H      0.085010000000     0.703280000000     0.974250000000     0.0283969  
H207     H      0.084920000000     0.614250000000     0.007680000000     0.0290085  
H208     H      0.138690000000     0.614350000000     0.007910000000     0.0471321  
H209     H      0.513760000000     0.673730000000     0.038350000000     0.0457684  
H210     H      0.567300000000     0.673020000000     0.038090000000     0.0280101  
H211     H      0.566600000000     0.644490000000     0.947440000000     0.0280361  
H212     H      0.513070000000     0.643880000000     0.948000000000     0.0457454  
H213     H      0.471630000000     0.674690000000     0.948430000000     0.0456249  
H214     H      0.418140000000     0.674170000000     0.948330000000     0.0280302  
H215     H      0.418090000000     0.644340000000     0.038570000000     0.0282936  
H216     H      0.471680000000     0.643560000000     0.038350000000     0.0459102  
H217     H      0.674910000000     0.804950000000     0.946520000000     0.0465464  
H218     H      0.674980000000     0.751150000000     0.946650000000     0.0282635  
H219     H      0.643310000000     0.751450000000     0.036320000000     0.0279877  
H220     H      0.642990000000     0.805220000000     0.035960000000     0.0466169  
H221     H      0.614370000000     0.845690000000     0.007880000000     0.0469897  
H222     H      0.614150000000     0.899460000000     0.007910000000     0.0284934  
H223     H      0.703230000000     0.899730000000     0.974620000000     0.0278314  
H224     H      0.703220000000     0.845940000000     0.974350000000     0.0463847  
H225     H      0.805480000000     0.642750000000     0.946810000000     0.0465576  
H226     H      0.751690000000     0.642830000000     0.946850000000     0.0281918  
H227     H      0.751940000000     0.675280000000     0.036240000000     0.0282783  
H228     H      0.805710000000     0.675440000000     0.035970000000     0.0466483  
H229     H      0.846390000000     0.703600000000     0.007810000000     0.0468789  
H230     H      0.900170000000     0.703640000000     0.007740000000     0.028429   
H231     H      0.900060000000     0.614350000000     0.975010000000     0.0279583  
H232     H      0.846280000000     0.614540000000     0.974860000000     0.0465268  
H233     H      0.310290000000     0.513040000000     0.037290000000     0.0457891  
H234     H      0.310960000000     0.566550000000     0.037480000000     0.0280896  
H235     H      0.340240000000     0.566650000000     0.947070000000     0.0283458  
H236     H      0.340860000000     0.513090000000     0.947180000000     0.0457847  
H237     H      0.310220000000     0.471390000000     0.947190000000     0.0457023  
H238     H      0.310720000000     0.417880000000     0.947000000000     0.0280738  
H239     H      0.340000000000     0.417680000000     0.037410000000     0.0283618  
H240     H      0.340780000000     0.471240000000     0.037300000000     0.045876   
H241     H      0.179370000000     0.309720000000     0.037770000000     0.0468167  
H242     H      0.233170000000     0.309730000000     0.037450000000     0.028361   
H243     H      0.232510000000     0.341420000000     0.947800000000     0.0280041  
H244     H      0.178750000000     0.341650000000     0.948330000000     0.0466589  
H245     H      0.138260000000     0.370120000000     0.976470000000     0.0466645  
H246     H      0.084480000000     0.370170000000     0.976640000000     0.0284662  
H247     H      0.084610000000     0.281150000000     0.010070000000     0.0290469  
H248     H      0.138390000000     0.281320000000     0.010130000000     0.047099   
H249     H      0.341530000000     0.179020000000     0.035570000000     0.0467845  
H250     H      0.341270000000     0.232770000000     0.035870000000     0.0279739  
H251     H      0.309310000000     0.233040000000     0.946310000000     0.0282571  
H252     H      0.309340000000     0.179220000000     0.946240000000     0.0467755  
H253     H      0.281120000000     0.138240000000     0.974170000000     0.046674   
H254     H      0.281070000000     0.084450000000     0.974590000000     0.0284719  
H255     H      0.370210000000     0.084760000000     0.007720000000     0.0290309  
H256     H      0.370020000000     0.138530000000     0.007530000000     0.0471571  
H257     H      0.644020000000     0.512980000000     0.947230000000     0.0457473  
H258     H      0.644650000000     0.566490000000     0.947190000000     0.0282144  
H259     H      0.674080000000     0.566350000000     0.037570000000     0.0283776  
H260     H      0.674700000000     0.512780000000     0.037290000000     0.0458101  
H261     H      0.674620000000     0.471190000000     0.947090000000     0.0456897  
H262     H      0.673800000000     0.417630000000     0.946820000000     0.0283658  
H263     H      0.644400000000     0.417590000000     0.037200000000     0.0281939  
H264     H      0.643950000000     0.471100000000     0.037160000000     0.0458782  
H265     H      0.471200000000     0.309510000000     0.036030000000     0.045788   
H266     H      0.417710000000     0.310100000000     0.036140000000     0.0280015  
H267     H      0.417690000000     0.339930000000     0.945900000000     0.0282789  
H268     H      0.471280000000     0.340650000000     0.946120000000     0.0458313  
H269     H      0.513310000000     0.310420000000     0.946110000000     0.0456943  
H270     H      0.566860000000     0.311080000000     0.946350000000     0.0280646  
H271     H      0.566210000000     0.339610000000     0.037000000000     0.0280481  
H272     H      0.512680000000     0.340260000000     0.036460000000     0.0458384  
H273     H      0.805080000000     0.341340000000     0.037500000000     0.0466693  
H274     H      0.751290000000     0.341200000000     0.037500000000     0.0282214  
H275     H      0.751510000000     0.308720000000     0.948120000000     0.0282686  
H276     H      0.805280000000     0.308630000000     0.948350000000     0.0465706  
H277     H      0.846030000000     0.280540000000     0.976480000000     0.0464404  
H278     H      0.899810000000     0.280580000000     0.976520000000     0.0279794  
H279     H      0.899590000000     0.369880000000     0.009220000000     0.0285315  
H280     H      0.845810000000     0.369610000000     0.009400000000     0.0470055  
H281     H      0.674520000000     0.179090000000     0.037870000000     0.0468232  
H282     H      0.674530000000     0.232890000000     0.037760000000     0.0283542  
H283     H      0.642860000000     0.232580000000     0.948100000000     0.0280324  
H284     H      0.642600000000     0.178810000000     0.948430000000     0.0466439  
H285     H      0.614070000000     0.138260000000     0.976470000000     0.0466815  
H286     H      0.613960000000     0.084490000000     0.976400000000     0.0284337  
H287     H      0.703030000000     0.084380000000     0.009730000000     0.0289258  
H288     H      0.702910000000     0.138170000000     0.010030000000     0.0470121  
O1       O      0.700870000000     0.324440000000     0.968000000000    -0.545788   
O2       O      0.617370000000     0.325300000000     0.967460000000    -0.545741   
O3       O      0.659620000000     0.366770000000     0.967520000000    -0.544454   
O4       O      0.658600000000     0.283210000000     0.968020000000    -0.545782   
O5       O      0.659160000000     0.283560000000     0.017230000000    -0.543775   
O6       O      0.658500000000     0.367060000000     0.016710000000    -0.545378   
O7       O      0.617050000000     0.325180000000     0.016670000000    -0.543841   
O8       O      0.700610000000     0.325680000000     0.017190000000    -0.544032   
O9       O      0.283760000000     0.325060000000     0.016730000000    -0.543985   
O10      O      0.367260000000     0.324980000000     0.015900000000    -0.545463   
O11      O      0.325670000000     0.366910000000     0.016590000000    -0.543509   
O12      O      0.325600000000     0.283370000000     0.015990000000    -0.544943   
O13      O      0.324790000000     0.283760000000     0.966790000000    -0.544884   
O14      O      0.325000000000     0.367270000000     0.967390000000    -0.546401   
O15      O      0.366790000000     0.325520000000     0.966700000000    -0.544396   
O16      O      0.283230000000     0.325750000000     0.967530000000    -0.545897   
O17      O      0.659590000000     0.700470000000     0.967180000000    -0.545232   
O18      O      0.658870000000     0.616980000000     0.967690000000    -0.54687    
O19      O      0.617450000000     0.658880000000     0.967750000000    -0.545189   
O20      O      0.701010000000     0.658330000000     0.967190000000    -0.545407   
O21      O      0.701300000000     0.659560000000     0.016380000000    -0.544555   
O22      O      0.617790000000     0.658760000000     0.016960000000    -0.544304   
O23      O      0.660010000000     0.617250000000     0.016880000000    -0.54296    
O24      O      0.659050000000     0.700820000000     0.016390000000    -0.54446    
O25      O      0.284190000000     0.659370000000     0.967720000000    -0.545437   
O26      O      0.367680000000     0.659350000000     0.968570000000    -0.546893   
O27      O      0.326030000000     0.617460000000     0.967880000000    -0.544757   
O28      O      0.326070000000     0.701010000000     0.968460000000    -0.54635    
O29      O      0.325250000000     0.700630000000     0.017660000000    -0.543651   
O30      O      0.325360000000     0.617110000000     0.017080000000    -0.545115   
O31      O      0.367210000000     0.658810000000     0.017770000000    -0.543081   
O32      O      0.283640000000     0.658690000000     0.016920000000    -0.544405   
O33      O      0.700400000000     0.967590000000     0.659280000000    -0.545556   
O34      O      0.616910000000     0.968420000000     0.659340000000    -0.546745   
O35      O      0.658520000000     0.967750000000     0.617420000000    -0.544903   
O36      O      0.658550000000     0.968310000000     0.700960000000    -0.546274   
O37      O      0.659370000000     0.017520000000     0.700590000000    -0.543537   
O38      O      0.659190000000     0.016950000000     0.617080000000    -0.54526    
O39      O      0.617380000000     0.017630000000     0.658810000000    -0.542899   
O40      O      0.700940000000     0.016790000000     0.658620000000    -0.54466    
O41      O      0.283300000000     0.016380000000     0.659730000000    -0.544357   
O42      O      0.366800000000     0.016900000000     0.658890000000    -0.544453   
O43      O      0.324570000000     0.016850000000     0.617410000000    -0.543103   
O44      O      0.325560000000     0.016350000000     0.700970000000    -0.544501   
O45      O      0.325000000000     0.967140000000     0.700620000000    -0.545113   
O46      O      0.325680000000     0.967660000000     0.617120000000    -0.54663    
O47      O      0.367120000000     0.967690000000     0.659010000000    -0.545141   
O48      O      0.283560000000     0.967180000000     0.658490000000    -0.545122   
O49      O      0.324890000000     0.017210000000     0.283710000000    -0.543825   
O50      O      0.325570000000     0.016700000000     0.367210000000    -0.545399   
O51      O      0.367010000000     0.016630000000     0.325320000000    -0.54389    
O52      O      0.283450000000     0.017200000000     0.325840000000    -0.544139   
O53      O      0.283160000000     0.968010000000     0.324600000000    -0.545981   
O54      O      0.366660000000     0.967420000000     0.325440000000    -0.545708   
O55      O      0.324420000000     0.967510000000     0.366920000000    -0.544493   
O56      O      0.325420000000     0.968000000000     0.283360000000    -0.545816   
O57      O      0.700270000000     0.016610000000     0.324980000000    -0.543866   
O58      O      0.616780000000     0.015770000000     0.324970000000    -0.545456   
O59      O      0.658410000000     0.016470000000     0.366870000000    -0.543317   
O60      O      0.658400000000     0.015860000000     0.283320000000    -0.544784   
O61      O      0.659220000000     0.966650000000     0.283720000000    -0.544805   
O62      O      0.659080000000     0.967260000000     0.367230000000    -0.546287   
O63      O      0.617250000000     0.966570000000     0.325520000000    -0.544391   
O64      O      0.700810000000     0.967400000000     0.325670000000    -0.54577    
O65      O      0.967460000000     0.658460000000     0.699750000000    -0.54525    
O66      O      0.967750000000     0.658390000000     0.616250000000    -0.546471   
O67      O      0.967450000000     0.616520000000     0.657940000000    -0.544628   
O68      O      0.967820000000     0.700080000000     0.657840000000    -0.545937   
O69      O      0.017030000000     0.699810000000     0.658360000000    -0.543754   
O70      O      0.016660000000     0.616310000000     0.658290000000    -0.545382   
O71      O      0.016960000000     0.658000000000     0.616420000000    -0.543261   
O72      O      0.016670000000     0.657900000000     0.699980000000    -0.544644   
O73      O      0.967270000000     0.282850000000     0.660150000000    -0.544971   
O74      O      0.967730000000     0.366370000000     0.660090000000    -0.546309   
O75      O      0.967320000000     0.324710000000     0.618230000000    -0.544353   
O76      O      0.967740000000     0.324760000000     0.701790000000    -0.545914   
O77      O      0.016950000000     0.324160000000     0.701490000000    -0.543686   
O78      O      0.016530000000     0.324240000000     0.617980000000    -0.545082   
O79      O      0.016940000000     0.366090000000     0.659650000000    -0.54314    
O80      O      0.016480000000     0.282530000000     0.659570000000    -0.544694   
O81      O      0.017050000000     0.660240000000     0.282780000000    -0.543796   
O82      O      0.016570000000     0.660180000000     0.366290000000    -0.545276   
O83      O      0.017000000000     0.618320000000     0.324640000000    -0.543065   
O84      O      0.016560000000     0.701880000000     0.324690000000    -0.544655   
O85      O      0.967350000000     0.701570000000     0.324070000000    -0.545187   
O86      O      0.967790000000     0.618060000000     0.324160000000    -0.546406   
O87      O      0.967360000000     0.659730000000     0.366010000000    -0.544498   
O88      O      0.967850000000     0.659640000000     0.282450000000    -0.546043   
O89      O      0.967270000000     0.325970000000     0.284530000000    -0.545314   
O90      O      0.967650000000     0.326040000000     0.368030000000    -0.546526   
O91      O      0.967340000000     0.367920000000     0.326340000000    -0.544465   
O92      O      0.967650000000     0.284360000000     0.326440000000    -0.546176   
O93      O      0.016850000000     0.284590000000     0.325870000000    -0.544101   
O94      O      0.016550000000     0.368090000000     0.325940000000    -0.545228   
O95      O      0.016860000000     0.326400000000     0.367810000000    -0.543123   
O96      O      0.016480000000     0.326500000000     0.284250000000    -0.544689   
O97      O      0.950420000000     0.300760000000     0.992190000000    -0.545836   
O98      O      0.033940000000     0.300960000000     0.994070000000    -0.544486   
O99      O      0.991220000000     0.301020000000     0.034890000000    -0.544319   
O100     O      0.993130000000     0.300710000000     0.951360000000    -0.545958   
O101     O      0.991470000000     0.349890000000     0.951180000000    -0.545991   
O102     O      0.992670000000     0.350200000000     0.034700000000    -0.545131   
O103     O      0.033830000000     0.350140000000     0.992340000000    -0.544323   
O104     O      0.950300000000     0.349950000000     0.993560000000    -0.546472   
O105     O      0.950750000000     0.634330000000     0.990680000000    -0.546      
O106     O      0.034270000000     0.634240000000     0.991930000000    -0.544848   
O107     O      0.991890000000     0.634430000000     0.033070000000    -0.544305   
O108     O      0.993120000000     0.634140000000     0.949550000000    -0.54656    
O109     O      0.991630000000     0.683330000000     0.949380000000    -0.545816   
O110     O      0.993500000000     0.683620000000     0.032900000000    -0.544461   
O111     O      0.034330000000     0.683420000000     0.990200000000    -0.544171   
O112     O      0.950810000000     0.683520000000     0.992050000000    -0.546407   
O113     O      0.033720000000     0.993680000000     0.349900000000    -0.544686   
O114     O      0.950200000000     0.992390000000     0.350040000000    -0.546158   
O115     O      0.992590000000     0.951270000000     0.349820000000    -0.546607   
O116     O      0.991330000000     0.034790000000     0.350120000000    -0.544591   
O117     O      0.992800000000     0.034970000000     0.300940000000    -0.5446     
O118     O      0.990960000000     0.951440000000     0.300640000000    -0.545975   
O119     O      0.950120000000     0.994120000000     0.300860000000    -0.546377   
O120     O      0.033640000000     0.992310000000     0.300710000000    -0.544099   
O121     O      0.950240000000     0.990250000000     0.683340000000    -0.545861   
O122     O      0.033760000000     0.992160000000     0.683490000000    -0.544587   
O123     O      0.991030000000     0.032970000000     0.683560000000    -0.544184   
O124     O      0.992970000000     0.949450000000     0.683270000000    -0.546247   
O125     O      0.991510000000     0.949630000000     0.634080000000    -0.546313   
O126     O      0.992670000000     0.033150000000     0.634380000000    -0.544707   
O127     O      0.033850000000     0.990790000000     0.634300000000    -0.544396   
O128     O      0.950330000000     0.991970000000     0.634160000000    -0.546656   
O129     O      0.634000000000     0.992290000000     0.033900000000    -0.545069   
O130     O      0.634030000000     0.991690000000     0.950380000000    -0.546235   
O131     O      0.634060000000     0.950230000000     0.992440000000    -0.546718   
O132     O      0.633970000000     0.033750000000     0.991840000000    -0.544627   
O133     O      0.683150000000     0.033790000000     0.993410000000    -0.544667   
O134     O      0.683240000000     0.950290000000     0.990910000000    -0.54605    
O135     O      0.683220000000     0.993300000000     0.950410000000    -0.546035   
O136     O      0.683180000000     0.990790000000     0.033920000000    -0.544171   
O137     O      0.350320000000     0.992520000000     0.950410000000    -0.546425   
O138     O      0.350290000000     0.991920000000     0.033940000000    -0.544502   
O139     O      0.350350000000     0.950450000000     0.991880000000    -0.546189   
O140     O      0.350260000000     0.033980000000     0.992470000000    -0.544687   
O141     O      0.301070000000     0.033920000000     0.990900000000    -0.544036   
O142     O      0.301170000000     0.950410000000     0.993420000000    -0.546239   
O143     O      0.301110000000     0.993410000000     0.033910000000    -0.544658   
O144     O      0.301130000000     0.990910000000     0.950410000000    -0.545802   
V1       V      0.659130000000     0.324940000000     0.965780000000     1.38326    
V2       V      0.658820000000     0.325360000000     0.018920000000     1.38868    
V3       V      0.325570000000     0.325090000000     0.018270000000     1.38958    
V4       V      0.324950000000     0.325570000000     0.965130000000     1.38306    
V5       V      0.659220000000     0.658670000000     0.965480000000     1.3842     
V6       V      0.659560000000     0.659090000000     0.018630000000     1.38783    
V7       V      0.325990000000     0.659290000000     0.966190000000     1.3846     
V8       V      0.325370000000     0.658820000000     0.019330000000     1.38753    
V9       V      0.658600000000     0.966050000000     0.659240000000     1.38497    
V10      V      0.659220000000     0.019200000000     0.658780000000     1.38812    
V11      V      0.325040000000     0.018590000000     0.659240000000     1.38832    
V12      V      0.325350000000     0.965450000000     0.658820000000     1.38353    
V13      V      0.325240000000     0.018910000000     0.325510000000     1.38885    
V14      V      0.324890000000     0.965760000000     0.325090000000     1.38347    
V15      V      0.658470000000     0.018140000000     0.325040000000     1.38943    
V16      V      0.659090000000     0.965000000000     0.325530000000     1.38293    
V17      V      0.965650000000     0.658340000000     0.657960000000     1.38379    
V18      V      0.018800000000     0.658010000000     0.658240000000     1.38887    
V19      V      0.965540000000     0.324660000000     0.660060000000     1.38309    
V20      V      0.018690000000     0.324260000000     0.659690000000     1.3887     
V21      V      0.018770000000     0.660150000000     0.324590000000     1.38854    
V22      V      0.965620000000     0.659770000000     0.324180000000     1.38361    
V23      V      0.965510000000     0.326090000000     0.326320000000     1.38394    
V24      V      0.018660000000     0.326380000000     0.325980000000     1.38886    
V25      V      0.992180000000     0.298880000000     0.993140000000     1.38071    
V26      V      0.992060000000     0.352020000000     0.992940000000     1.38161    
V27      V      0.992510000000     0.632310000000     0.991310000000     1.38174    
V28      V      0.992570000000     0.685450000000     0.991130000000     1.38083    
V29      V      0.991960000000     0.993020000000     0.351950000000     1.3817     
V30      V      0.991870000000     0.993210000000     0.298810000000     1.38096    
V31      V      0.992000000000     0.991200000000     0.685390000000     1.3808     
V32      V      0.992090000000     0.991390000000     0.632250000000     1.38185    
V33      V      0.632040000000     0.991990000000     0.992140000000     1.38243    
V34      V      0.685180000000     0.992040000000     0.992160000000     1.38066    
V35      V      0.352280000000     0.992220000000     0.992170000000     1.38159    
V36      V      0.299140000000     0.992160000000     0.992160000000     1.38101    


