data_structure

_audit_creation_method RASPA-1.0
_audit_creation_date 2023-5-22
_audit_author_name 'Poobodin Mano'

_cell_length_a    45.449
_cell_length_b    45.4489
_cell_length_c    30.3346
_cell_angle_alpha 90
_cell_angle_beta  90
_cell_angle_gamma 90
_cell_volume      62659.4

_symmetry_cell_setting          triclinic
_symmetry_space_group_name_Hall 'P 1'
_symmetry_space_group_name_H-M  'P 1'
_symmetry_Int_Tables_number     1

_symmetry_equiv_pos_as_xyz 'x,y,z'

loop_
_atom_site_label
_atom_site_type_symbol
_atom_site_fract_x
_atom_site_fract_y
_atom_site_fract_z
_atom_site_charge
C1       C      0.492740000000     0.824960000000     0.074860000000     0.434563   
C2       C      0.493070000000     0.824830000000     0.908140000000     0.434669   
C3       C      0.437300000000     0.825040000000     0.991180000000     0.434484   
C4       C      0.548570000000     0.824750000000     0.991810000000     0.434361   
C5       C      0.491380000000     0.824880000000     0.574860000000     0.434701   
C6       C      0.491650000000     0.825010000000     0.408140000000     0.434703   
C7       C      0.435850000000     0.824900000000     0.491240000000     0.434825   
C8       C      0.547110000000     0.825010000000     0.491780000000     0.434932   
C9       C      0.825380000000     0.491290000000     0.907940000000     0.434633   
C10      C      0.825490000000     0.491620000000     0.074660000000     0.434306   
C11      C      0.824720000000     0.435820000000     0.991580000000     0.434258   
C12      C      0.826150000000     0.547080000000     0.990930000000     0.434715   
C13      C      0.825490000000     0.491360000000     0.407960000000     0.434737   
C14      C      0.825380000000     0.491700000000     0.574680000000     0.434659   
C15      C      0.826110000000     0.435900000000     0.491700000000     0.434412   
C16      C      0.824770000000     0.547160000000     0.491050000000     0.434617   
C17      C      0.491290000000     0.158370000000     0.908640000000     0.434683   
C18      C      0.491570000000     0.158230000000     0.075360000000     0.434661   
C19      C      0.435760000000     0.158430000000     0.992270000000     0.43488    
C20      C      0.547030000000     0.158160000000     0.991700000000     0.434881   
C21      C      0.493040000000     0.158420000000     0.575360000000     0.434594   
C22      C      0.492680000000     0.158280000000     0.408640000000     0.434269   
C23      C      0.548530000000     0.158410000000     0.491660000000     0.434639   
C24      C      0.437260000000     0.158290000000     0.492340000000     0.434575   
C25      C      0.158930000000     0.491900000000     0.075030000000     0.434644   
C26      C      0.158970000000     0.492190000000     0.908310000000     0.434632   
C27      C      0.158750000000     0.436420000000     0.991380000000     0.434413   
C28      C      0.159140000000     0.547690000000     0.991960000000     0.434811   
C29      C      0.158930000000     0.491690000000     0.408310000000     0.434727   
C30      C      0.158980000000     0.491400000000     0.575030000000     0.43419    
C31      C      0.158780000000     0.547160000000     0.491950000000     0.434796   
C32      C      0.159120000000     0.435900000000     0.491380000000     0.434474   
C33      C      0.881730000000     0.824850000000     0.991140000000     0.434696   
C34      C      0.770460000000     0.824320000000     0.991800000000     0.434368   
C35      C      0.826450000000     0.768950000000     0.990820000000     0.434431   
C36      C      0.825770000000     0.880220000000     0.991950000000     0.434375   
C37      C      0.880230000000     0.824400000000     0.491270000000     0.434402   
C38      C      0.768960000000     0.824940000000     0.492070000000     0.434706   
C39      C      0.824300000000     0.769040000000     0.491270000000     0.4346     
C40      C      0.824840000000     0.880310000000     0.491910000000     0.43458    
C41      C      0.824790000000     0.102680000000     0.991310000000     0.434554   
C42      C      0.824180000000     0.213950000000     0.991760000000     0.434401   
C43      C      0.768870000000     0.158010000000     0.991110000000     0.434272   
C44      C      0.880150000000     0.158630000000     0.991830000000     0.434277   
C45      C      0.825770000000     0.102760000000     0.491280000000     0.434542   
C46      C      0.826360000000     0.214040000000     0.492230000000     0.434591   
C47      C      0.770410000000     0.158620000000     0.491370000000     0.434668   
C48      C      0.881690000000     0.158190000000     0.491980000000     0.434471   
C49      C      0.158350000000     0.103290000000     0.991790000000     0.434705   
C50      C      0.158210000000     0.214560000000     0.991090000000     0.434724   
C51      C      0.102620000000     0.158920000000     0.991090000000     0.434416   
C52      C      0.213890000000     0.158950000000     0.991950000000     0.434474   
C53      C      0.159720000000     0.102750000000     0.492210000000     0.434513   
C54      C      0.159780000000     0.214030000000     0.491400000000     0.434522   
C55      C      0.215400000000     0.158330000000     0.492350000000     0.434621   
C56      C      0.104130000000     0.158450000000     0.491410000000     0.434559   
C57      C      0.104170000000     0.825100000000     0.991800000000     0.434355   
C58      C      0.215440000000     0.825280000000     0.990970000000     0.434509   
C59      C      0.159850000000     0.769560000000     0.991880000000     0.434411   
C60      C      0.159730000000     0.880830000000     0.991050000000     0.434511   
C61      C      0.102700000000     0.824640000000     0.492090000000     0.434628   
C62      C      0.213980000000     0.824660000000     0.491340000000     0.43456    
C63      C      0.158320000000     0.769020000000     0.492150000000     0.434619   
C64      C      0.158420000000     0.880300000000     0.491450000000     0.43445    
C65      C      0.150660000000     0.959430000000     0.453720000000    -0.0737534  
C66      C      0.158960000000     0.975130000000     0.491760000000     0.025097   
C67      C      0.167100000000     0.959190000000     0.529620000000    -0.0740597  
C68      C      0.166740000000     0.928460000000     0.529540000000     0.0366025  
C69      C      0.158620000000     0.912860000000     0.491450000000    -0.134233   
C70      C      0.150690000000     0.928670000000     0.453480000000     0.0364681  
C71      C      0.159180000000     0.007920000000     0.491950000000     0.0251416  
C72      C      0.167590000000     0.023750000000     0.454120000000    -0.0740462  
C73      C      0.167620000000     0.054490000000     0.454190000000     0.0365582  
C74      C      0.159640000000     0.070190000000     0.492260000000    -0.134214   
C75      C      0.151470000000     0.054480000000     0.530210000000     0.0364782  
C76      C      0.151050000000     0.023720000000     0.529970000000    -0.0738206  
C77      C      0.167550000000     0.959840000000     0.029140000000    -0.0739125  
C78      C      0.159160000000     0.975660000000     0.991300000000     0.0250127  
C79      C      0.151050000000     0.959860000000     0.953270000000    -0.0737749  
C80      C      0.151480000000     0.929100000000     0.953040000000     0.0364871  
C81      C      0.159640000000     0.913390000000     0.990990000000    -0.134315   
C82      C      0.167600000000     0.929100000000     0.029070000000     0.036638   
C83      C      0.158920000000     0.008460000000     0.991480000000     0.0250671  
C84      C      0.150600000000     0.024150000000     0.029510000000    -0.0737139  
C85      C      0.150620000000     0.054910000000     0.029750000000     0.0366329  
C86      C      0.158560000000     0.070730000000     0.991790000000    -0.134403   
C87      C      0.166710000000     0.055130000000     0.953700000000     0.0365874  
C88      C      0.167080000000     0.024390000000     0.953630000000    -0.0740912  
C89      C      0.960630000000     0.166460000000     0.453840000000    -0.0740533  
C90      C      0.976510000000     0.158210000000     0.491700000000     0.0251516  
C91      C      0.960770000000     0.149960000000     0.529720000000    -0.073814   
C92      C      0.930010000000     0.150150000000     0.529940000000     0.0364744  
C93      C      0.914250000000     0.158210000000     0.491980000000    -0.134213   
C94      C      0.929890000000     0.166270000000     0.453900000000     0.0365721  
C95      C      0.009310000000     0.158290000000     0.491550000000     0.025114   
C96      C      0.025090000000     0.150100000000     0.453540000000    -0.0737815  
C97      C      0.055850000000     0.150390000000     0.453340000000     0.0364704  
C98      C      0.071570000000     0.158480000000     0.491320000000    -0.134204   
C99      C      0.055890000000     0.166510000000     0.529380000000     0.0365304  
C100     C      0.025150000000     0.166610000000     0.529410000000    -0.0739878  
C101     C      0.959250000000     0.150650000000     0.029580000000    -0.0737158  
C102     C      0.974980000000     0.158870000000     0.991530000000     0.0250355  
C103     C      0.959080000000     0.167090000000     0.953680000000    -0.0740402  
C104     C      0.928340000000     0.166870000000     0.953760000000     0.0365409  
C105     C      0.912710000000     0.158810000000     0.991860000000    -0.134328   
C106     C      0.928490000000     0.150820000000     0.029820000000     0.0366224  
C107     C      0.007780000000     0.158910000000     0.991330000000     0.0249851  
C108     C      0.023660000000     0.167200000000     0.029170000000    -0.0738885  
C109     C      0.054400000000     0.167040000000     0.029110000000     0.0366346  
C110     C      0.070060000000     0.158980000000     0.991040000000    -0.134318   
C111     C      0.054300000000     0.150930000000     0.953080000000     0.0364827  
C112     C      0.023540000000     0.150700000000     0.953300000000    -0.0737866  
C113     C      0.959320000000     0.832580000000     0.453530000000    -0.0737687  
C114     C      0.975070000000     0.824380000000     0.491570000000     0.0250981  
C115     C      0.959190000000     0.816100000000     0.529400000000    -0.07397    
C116     C      0.928440000000     0.816240000000     0.529320000000     0.0364276  
C117     C      0.912800000000     0.824290000000     0.491230000000    -0.134056   
C118     C      0.928560000000     0.832340000000     0.453280000000     0.0364135  
C119     C      0.007870000000     0.824440000000     0.491780000000     0.0251236  
C120     C      0.023780000000     0.816220000000     0.453940000000    -0.0740015  
C121     C      0.054520000000     0.816450000000     0.454020000000     0.0366011  
C122     C      0.070140000000     0.824520000000     0.492110000000    -0.134318   
C123     C      0.054360000000     0.832520000000     0.530070000000     0.0364838  
C124     C      0.023590000000     0.832680000000     0.529820000000    -0.0737934  
C125     C      0.833400000000     0.959360000000     0.529650000000    -0.0738223  
C126     C      0.825240000000     0.975140000000     0.491620000000     0.0251111  
C127     C      0.816890000000     0.959290000000     0.453780000000    -0.0740176  
C128     C      0.816930000000     0.928550000000     0.453850000000     0.0365608  
C129     C      0.824920000000     0.912870000000     0.491930000000    -0.13424    
C130     C      0.833050000000     0.928600000000     0.529880000000     0.0365062  
C131     C      0.825360000000     0.007940000000     0.491460000000     0.0251721  
C132     C      0.817160000000     0.023830000000     0.529320000000    -0.0740855  
C133     C      0.817450000000     0.054570000000     0.529280000000     0.0366167  
C134     C      0.825560000000     0.070210000000     0.491210000000    -0.134365   
C135     C      0.833530000000     0.054430000000     0.453230000000     0.0365644  
C136     C      0.833630000000     0.023670000000     0.453430000000    -0.0738543  
C137     C      0.960690000000     0.816730000000     0.029260000000    -0.0739743  
C138     C      0.976550000000     0.825050000000     0.991430000000     0.0250708  
C139     C      0.960790000000     0.833280000000     0.953420000000    -0.0738633  
C140     C      0.930030000000     0.833000000000     0.953190000000     0.0366064  
C141     C      0.914290000000     0.824890000000     0.991130000000    -0.134482   
C142     C      0.929950000000     0.816850000000     0.029200000000     0.03676    
C143     C      0.009350000000     0.825060000000     0.991590000000     0.0250515  
C144     C      0.025100000000     0.833280000000     0.029610000000    -0.0737434  
C145     C      0.055860000000     0.833060000000     0.029830000000     0.0366386  
C146     C      0.071610000000     0.825020000000     0.991860000000    -0.134364   
C147     C      0.055960000000     0.816970000000     0.953790000000     0.0366102  
C148     C      0.025220000000     0.816800000000     0.953730000000    -0.074068   
C149     C      0.833600000000     0.959310000000     0.029860000000    -0.0736613  
C150     C      0.825320000000     0.975050000000     0.991860000000     0.0250049  
C151     C      0.817100000000     0.959160000000     0.954000000000    -0.0739756  
C152     C      0.817390000000     0.928420000000     0.954020000000     0.0365131  
C153     C      0.825530000000     0.912780000000     0.992070000000    -0.134284   
C154     C      0.833510000000     0.928550000000     0.030050000000     0.0365714  
C155     C      0.825220000000     0.007850000000     0.991690000000     0.0250383  
C156     C      0.816900000000     0.023700000000     0.029530000000    -0.073891   
C157     C      0.816930000000     0.054440000000     0.029440000000     0.0366405  
C158     C      0.824900000000     0.070120000000     0.991340000000    -0.134343   
C159     C      0.833020000000     0.054370000000     0.953400000000     0.0365301  
C160     C      0.833370000000     0.023620000000     0.953650000000    -0.0738177  
C161     C      0.133470000000     0.626100000000     0.478750000000    -0.074582   
C162     C      0.158450000000     0.641800000000     0.492520000000     0.0252689  
C163     C      0.183530000000     0.626210000000     0.506150000000    -0.0745792  
C164     C      0.183730000000     0.595460000000     0.505630000000     0.0367549  
C165     C      0.158670000000     0.579710000000     0.492170000000    -0.134404   
C166     C      0.133490000000     0.595350000000     0.478930000000     0.0367785  
C167     C      0.158370000000     0.674380000000     0.492500000000     0.0252428  
C168     C      0.149050000000     0.689970000000     0.455050000000    -0.0746602  
C169     C      0.149250000000     0.720720000000     0.454830000000     0.0366881  
C170     C      0.158300000000     0.736480000000     0.492340000000    -0.134501   
C171     C      0.167360000000     0.720840000000     0.529950000000     0.0367038  
C172     C      0.167630000000     0.690080000000     0.529890000000    -0.0745287  
C173     C      0.134290000000     0.356810000000     0.504640000000    -0.0744682  
C174     C      0.159360000000     0.341250000000     0.490890000000     0.0251884  
C175     C      0.184340000000     0.356990000000     0.477220000000    -0.0744404  
C176     C      0.184360000000     0.387740000000     0.477720000000     0.0365781  
C177     C      0.159200000000     0.403350000000     0.491180000000    -0.13418    
C178     C      0.134120000000     0.387560000000     0.504440000000     0.0366791  
C179     C      0.159480000000     0.308670000000     0.490960000000     0.02526    
C180     C      0.150240000000     0.293060000000     0.528430000000    -0.0746411  
C181     C      0.150570000000     0.262310000000     0.528680000000     0.0366851  
C182     C      0.159690000000     0.246570000000     0.491190000000    -0.134495   
C183     C      0.168700000000     0.262230000000     0.453580000000     0.0367207  
C184     C      0.168840000000     0.292990000000     0.453600000000    -0.0745198  
C185     C      0.134350000000     0.626790000000     0.978670000000    -0.0745402  
C186     C      0.159420000000     0.642330000000     0.992430000000     0.0252011  
C187     C      0.184390000000     0.626590000000     0.006110000000    -0.0744962  
C188     C      0.184390000000     0.595840000000     0.005630000000     0.0369071  
C189     C      0.159240000000     0.580240000000     0.992160000000    -0.134528   
C190     C      0.134160000000     0.596040000000     0.978890000000     0.0367548  
C191     C      0.159550000000     0.674920000000     0.992350000000     0.0251364  
C192     C      0.150320000000     0.690520000000     0.954870000000    -0.0745965  
C193     C      0.150660000000     0.721270000000     0.954600000000     0.0366332  
C194     C      0.159770000000     0.737010000000     0.992090000000    -0.13447    
C195     C      0.168770000000     0.721360000000     0.029710000000     0.0367874  
C196     C      0.168900000000     0.690600000000     0.029700000000    -0.074407   
C197     C      0.183460000000     0.357360000000     0.977150000000    -0.0745488  
C198     C      0.158370000000     0.341780000000     0.990770000000     0.0251931  
C199     C      0.133400000000     0.357490000000     0.004530000000    -0.0745536  
C200     C      0.133440000000     0.388240000000     0.004370000000     0.0369679  
C201     C      0.158620000000     0.403880000000     0.991150000000    -0.134527   
C202     C      0.183680000000     0.388110000000     0.977690000000     0.0367105  
C203     C      0.158280000000     0.309200000000     0.990770000000     0.0251408  
C204     C      0.167550000000     0.293510000000     0.953380000000    -0.0745166  
C205     C      0.167270000000     0.262750000000     0.953310000000     0.0367133  
C206     C      0.158190000000     0.247110000000     0.990900000000    -0.134571   
C207     C      0.149130000000     0.262860000000     0.028410000000     0.0367777  
C208     C      0.148950000000     0.293610000000     0.028200000000    -0.0745174  
C209     C      0.184320000000     0.483710000000     0.789990000000    -0.0740159  
C210     C      0.159000000000     0.491880000000     0.766240000000     0.0250895  
C211     C      0.133680000000     0.500200000000     0.789880000000    -0.073969   
C212     C      0.133620000000     0.500140000000     0.835950000000     0.0365539  
C213     C      0.158990000000     0.492150000000     0.859530000000    -0.134341   
C214     C      0.184370000000     0.484040000000     0.836050000000     0.0365496  
C215     C      0.159000000000     0.491720000000     0.717100000000     0.0250464  
C216     C      0.184320000000     0.499880000000     0.693350000000    -0.0739253  
C217     C      0.184380000000     0.499550000000     0.647280000000     0.0364409  
C218     C      0.159000000000     0.491450000000     0.623810000000    -0.134137   
C219     C      0.133620000000     0.483470000000     0.647390000000     0.0364354  
C220     C      0.133680000000     0.483410000000     0.693460000000    -0.0739209  
C221     C      0.133580000000     0.483600000000     0.193390000000    -0.0740379  
C222     C      0.158910000000     0.491800000000     0.217100000000     0.0251269  
C223     C      0.184240000000     0.500030000000     0.193420000000    -0.0740317  
C224     C      0.184300000000     0.499850000000     0.147350000000     0.0366063  
C225     C      0.158920000000     0.491850000000     0.123810000000    -0.134344   
C226     C      0.133530000000     0.483820000000     0.147320000000     0.03659    
C227     C      0.158910000000     0.491780000000     0.266240000000     0.0250819  
C228     C      0.133590000000     0.499990000000     0.289950000000    -0.0739725  
C229     C      0.133540000000     0.499770000000     0.336020000000     0.0365892  
C230     C      0.158920000000     0.491730000000     0.359530000000    -0.134371   
C231     C      0.184300000000     0.483720000000     0.335990000000     0.0365758  
C232     C      0.184240000000     0.483540000000     0.289920000000    -0.073989   
C233     C      0.358260000000     0.183210000000     0.506550000000    -0.0745261  
C234     C      0.342620000000     0.158160000000     0.492930000000     0.0252483  
C235     C      0.358270000000     0.133150000000     0.479190000000    -0.0745     
C236     C      0.389020000000     0.133090000000     0.479360000000     0.0367327  
C237     C      0.404720000000     0.158240000000     0.492580000000    -0.134346   
C238     C      0.389020000000     0.183340000000     0.506030000000     0.0366785  
C239     C      0.310040000000     0.158170000000     0.492860000000     0.0252596  
C240     C      0.294340000000     0.167480000000     0.530220000000    -0.0745426  
C241     C      0.263580000000     0.167280000000     0.530230000000     0.0366745  
C242     C      0.247940000000     0.158240000000     0.492600000000    -0.134463   
C243     C      0.263710000000     0.149150000000     0.455120000000     0.036663   
C244     C      0.294460000000     0.148880000000     0.455390000000    -0.0746249  
C245     C      0.627480000000     0.183490000000     0.477390000000    -0.0744807  
C246     C      0.643180000000     0.158490000000     0.491060000000     0.025187   
C247     C      0.627580000000     0.133450000000     0.504860000000    -0.0744423  
C248     C      0.596830000000     0.133330000000     0.504690000000     0.0366485  
C249     C      0.581080000000     0.158440000000     0.491420000000    -0.134279   
C250     C      0.596720000000     0.183560000000     0.477920000000     0.036632   
C251     C      0.675760000000     0.158540000000     0.491090000000     0.0252542  
C252     C      0.691430000000     0.167860000000     0.453700000000    -0.0744935  
C253     C      0.722200000000     0.167660000000     0.453630000000     0.0366139  
C254     C      0.737860000000     0.158620000000     0.491230000000    -0.134435   
C255     C      0.722130000000     0.149540000000     0.528740000000     0.0366719  
C256     C      0.691380000000     0.149280000000     0.528530000000    -0.0746249  
C257     C      0.356700000000     0.133560000000     0.978850000000    -0.074621   
C258     C      0.341120000000     0.158610000000     0.992610000000     0.0252314  
C259     C      0.356830000000     0.183590000000     0.006340000000    -0.0745304  
C260     C      0.387580000000     0.183620000000     0.005900000000     0.0369628  
C261     C      0.403220000000     0.158490000000     0.992430000000    -0.13471    
C262     C      0.387450000000     0.133410000000     0.979110000000     0.0368931  
C263     C      0.308540000000     0.158710000000     0.992500000000     0.0250632  
C264     C      0.292950000000     0.149480000000     0.955000000000    -0.0745919  
C265     C      0.262210000000     0.149790000000     0.954710000000     0.0366504  
C266     C      0.246440000000     0.158870000000     0.992190000000    -0.134445   
C267     C      0.262070000000     0.167870000000     0.029840000000     0.0367096  
C268     C      0.292830000000     0.168020000000     0.029850000000    -0.0743064  
C269     C      0.625990000000     0.132890000000     0.004740000000    -0.074542   
C270     C      0.641660000000     0.157880000000     0.990910000000     0.0252261  
C271     C      0.626050000000     0.182940000000     0.977320000000    -0.0745605  
C272     C      0.595290000000     0.183130000000     0.977920000000     0.036819   
C273     C      0.579570000000     0.158070000000     0.991430000000    -0.134694   
C274     C      0.595240000000     0.132900000000     0.004640000000     0.0370131  
C275     C      0.674240000000     0.157820000000     0.990860000000     0.0251069  
C276     C      0.689870000000     0.148550000000     0.028290000000    -0.0744511  
C277     C      0.720610000000     0.148800000000     0.028470000000     0.0367749  
C278     C      0.736330000000     0.157860000000     0.990930000000    -0.134502   
C279     C      0.720650000000     0.166870000000     0.953330000000     0.0366488  
C280     C      0.689890000000     0.167080000000     0.953430000000    -0.0744787  
C281     C      0.483600000000     0.133120000000     0.790130000000    -0.0739705  
C282     C      0.492010000000     0.158450000000     0.766570000000     0.0250848  
C283     C      0.500100000000     0.183760000000     0.790390000000    -0.0739941  
C284     C      0.499620000000     0.183800000000     0.836450000000     0.0365118  
C285     C      0.491440000000     0.158410000000     0.859860000000    -0.134302   
C286     C      0.483510000000     0.133050000000     0.836200000000     0.0365264  
C287     C      0.492350000000     0.158450000000     0.717430000000     0.0250767  
C288     C      0.500720000000     0.133130000000     0.693850000000    -0.0739584  
C289     C      0.500800000000     0.133070000000     0.647770000000     0.036465   
C290     C      0.492910000000     0.158460000000     0.624140000000    -0.134252   
C291     C      0.484760000000     0.183850000000     0.647560000000     0.0364738  
C292     C      0.484290000000     0.183790000000     0.693630000000    -0.073961   
C293     C      0.483720000000     0.183530000000     0.193800000000    -0.07398    
C294     C      0.492010000000     0.158200000000     0.217430000000     0.0250869  
C295     C      0.500130000000     0.132860000000     0.193660000000    -0.0740095  
C296     C      0.499770000000     0.132810000000     0.147590000000     0.036563   
C297     C      0.491690000000     0.158210000000     0.124130000000    -0.134391   
C298     C      0.483760000000     0.183590000000     0.147730000000     0.0366092  
C299     C      0.492210000000     0.158210000000     0.266570000000     0.0250924  
C300     C      0.500540000000     0.183540000000     0.290170000000    -0.0740073  
C301     C      0.500500000000     0.183610000000     0.336250000000     0.0365492  
C302     C      0.492540000000     0.158250000000     0.359860000000    -0.134213   
C303     C      0.484420000000     0.132860000000     0.336420000000     0.036498   
C304     C      0.484060000000     0.132890000000     0.290350000000    -0.0739781  
C305     C      0.836090000000     0.293070000000     0.455240000000    -0.0746227  
C306     C      0.826970000000     0.308680000000     0.492770000000     0.025242   
C307     C      0.817750000000     0.293000000000     0.530200000000    -0.0745064  
C308     C      0.817820000000     0.262250000000     0.530200000000     0.0366937  
C309     C      0.826640000000     0.246580000000     0.492490000000    -0.134483   
C310     C      0.835700000000     0.262320000000     0.454960000000     0.0366654  
C311     C      0.826870000000     0.341260000000     0.492740000000     0.0252188  
C312     C      0.851730000000     0.357020000000     0.478650000000    -0.0744728  
C313     C      0.851610000000     0.387780000000     0.478700000000     0.0366349  
C314     C      0.826440000000     0.403360000000     0.492140000000    -0.134327   
C315     C      0.801510000000     0.387530000000     0.505960000000     0.0366426  
C316     C      0.801810000000     0.356790000000     0.506600000000    -0.0745837  
C317     C      0.814830000000     0.690090000000     0.453560000000    -0.0744676  
C318     C      0.823960000000     0.674390000000     0.491020000000     0.0252369  
C319     C      0.833130000000     0.689980000000     0.528550000000    -0.0746549  
C320     C      0.833000000000     0.720720000000     0.528740000000     0.0366646  
C321     C      0.824150000000     0.736490000000     0.491140000000    -0.134359   
C322     C      0.815160000000     0.720850000000     0.453480000000     0.0365758  
C323     C      0.824110000000     0.641810000000     0.490920000000     0.0251772  
C324     C      0.799250000000     0.626010000000     0.476920000000    -0.0743718  
C325     C      0.799330000000     0.595240000000     0.477320000000     0.036534   
C326     C      0.824470000000     0.579710000000     0.491010000000    -0.134297   
C327     C      0.849420000000     0.595580000000     0.504640000000     0.0366608  
C328     C      0.849150000000     0.626310000000     0.504920000000    -0.0745535  
C329     C      0.833000000000     0.292970000000     0.954320000000    -0.0746317  
C330     C      0.823840000000     0.308600000000     0.991820000000     0.0251127  
C331     C      0.814710000000     0.292930000000     0.029310000000    -0.0743642  
C332     C      0.815040000000     0.262170000000     0.029460000000     0.0367091  
C333     C      0.824020000000     0.246500000000     0.991830000000    -0.134458   
C334     C      0.832870000000     0.262230000000     0.954190000000     0.0366425  
C335     C      0.824010000000     0.341180000000     0.991850000000     0.0251082  
C336     C      0.849050000000     0.356650000000     0.977810000000    -0.074562   
C337     C      0.849340000000     0.387390000000     0.978040000000     0.0366699  
C338     C      0.824400000000     0.403280000000     0.991650000000    -0.13441    
C339     C      0.799250000000     0.387770000000     0.005370000000     0.0366559  
C340     C      0.799150000000     0.357000000000     0.005830000000    -0.0743352  
C341     C      0.851810000000     0.625940000000     0.004090000000    -0.0743374  
C342     C      0.826950000000     0.641720000000     0.990030000000     0.0251297  
C343     C      0.801890000000     0.626210000000     0.976150000000    -0.0746375  
C344     C      0.801580000000     0.595470000000     0.976730000000     0.0367238  
C345     C      0.826500000000     0.579630000000     0.990530000000    -0.134501   
C346     C      0.851680000000     0.595180000000     0.003990000000     0.0367613  
C347     C      0.827070000000     0.674310000000     0.990070000000     0.0251346  
C348     C      0.836190000000     0.689880000000     0.027630000000    -0.0744683  
C349     C      0.835800000000     0.720630000000     0.027980000000     0.0367105  
C350     C      0.826740000000     0.736400000000     0.990490000000    -0.134439   
C351     C      0.817920000000     0.720780000000     0.952740000000     0.0366298  
C352     C      0.817850000000     0.690020000000     0.952670000000    -0.0745167  
C353     C      0.850650000000     0.483140000000     0.789530000000    -0.0740269  
C354     C      0.825330000000     0.491440000000     0.765880000000     0.0250996  
C355     C      0.800010000000     0.499640000000     0.789610000000    -0.0740581  
C356     C      0.799960000000     0.499360000000     0.835680000000     0.0365604  
C357     C      0.825350000000     0.491280000000     0.859170000000    -0.134405   
C358     C      0.850720000000     0.483260000000     0.835600000000     0.0366048  
C359     C      0.825330000000     0.491540000000     0.716740000000     0.0251459  
C360     C      0.850660000000     0.499820000000     0.693090000000    -0.0741154  
C361     C      0.850720000000     0.499700000000     0.647020000000     0.0366943  
C362     C      0.825350000000     0.491700000000     0.623450000000    -0.13447    
C363     C      0.799960000000     0.483630000000     0.646940000000     0.0366031  
C364     C      0.800010000000     0.483360000000     0.693010000000    -0.0740662  
C365     C      0.800230000000     0.483110000000     0.289530000000    -0.0740276  
C366     C      0.825530000000     0.491450000000     0.265880000000     0.0250535  
C367     C      0.850830000000     0.499720000000     0.289590000000    -0.0739834  
C368     C      0.850880000000     0.499490000000     0.335660000000     0.036351   
C369     C      0.825520000000     0.491340000000     0.359170000000    -0.134344   
C370     C      0.800170000000     0.483240000000     0.335600000000     0.0363761  
C371     C      0.825530000000     0.491530000000     0.216750000000     0.0249448  
C372     C      0.850820000000     0.483240000000     0.193030000000    -0.0738596  
C373     C      0.850870000000     0.483470000000     0.146960000000     0.0362403  
C374     C      0.825520000000     0.491640000000     0.123450000000    -0.134137   
C375     C      0.800180000000     0.499770000000     0.147020000000     0.0362656  
C376     C      0.800240000000     0.499890000000     0.193090000000    -0.0739172  
C377     C      0.356880000000     0.799850000000     0.477120000000    -0.0746064  
C378     C      0.341210000000     0.824860000000     0.490830000000     0.0253293  
C379     C      0.356820000000     0.849890000000     0.504610000000    -0.0746149  
C380     C      0.387570000000     0.849990000000     0.504380000000     0.036848   
C381     C      0.403310000000     0.824890000000     0.491060000000    -0.134515   
C382     C      0.387640000000     0.799770000000     0.477590000000     0.036727   
C383     C      0.308630000000     0.824810000000     0.490900000000     0.0251587  
C384     C      0.292930000000     0.815520000000     0.453530000000    -0.0743902  
C385     C      0.262170000000     0.815700000000     0.453500000000     0.0365592  
C386     C      0.246530000000     0.824720000000     0.491140000000    -0.134341   
C387     C      0.262280000000     0.833780000000     0.528630000000     0.0366522  
C388     C      0.293030000000     0.834060000000     0.528380000000    -0.0745635  
C389     C      0.626100000000     0.850160000000     0.478640000000    -0.0745087  
C390     C      0.641750000000     0.825150000000     0.492410000000     0.0252348  
C391     C      0.626110000000     0.800110000000     0.506030000000    -0.0744806  
C392     C      0.595360000000     0.799960000000     0.505480000000     0.0366707  
C393     C      0.579660000000     0.825060000000     0.492010000000    -0.134363   
C394     C      0.595350000000     0.850210000000     0.478790000000     0.0367587  
C395     C      0.674330000000     0.825170000000     0.492420000000     0.0252889  
C396     C      0.689940000000     0.834440000000     0.454970000000    -0.0746702  
C397     C      0.720690000000     0.834170000000     0.454760000000     0.0367478  
C398     C      0.736420000000     0.825080000000     0.492270000000    -0.134542   
C399     C      0.720760000000     0.816070000000     0.529880000000     0.0367491  
C400     C      0.690000000000     0.815870000000     0.529810000000    -0.0745431  
C401     C      0.294490000000     0.834670000000     0.028000000000    -0.0744741  
C402     C      0.310080000000     0.825360000000     0.990560000000     0.0251355  
C403     C      0.294390000000     0.816070000000     0.953190000000    -0.0744665  
C404     C      0.263630000000     0.816300000000     0.953140000000     0.0366295  
C405     C      0.247990000000     0.825350000000     0.990750000000    -0.13445    
C406     C      0.263740000000     0.834440000000     0.028240000000     0.0367346  
C407     C      0.342660000000     0.825310000000     0.990540000000     0.0251576  
C408     C      0.358340000000     0.850310000000     0.004290000000    -0.0744706  
C409     C      0.389090000000     0.850310000000     0.004140000000     0.0369002  
C410     C      0.404760000000     0.825140000000     0.990930000000    -0.134475   
C411     C      0.389030000000     0.800060000000     0.977470000000     0.0366623  
C412     C      0.358270000000     0.800240000000     0.976930000000    -0.0745184  
C413     C      0.691410000000     0.833700000000     0.954720000000    -0.074578   
C414     C      0.675800000000     0.824430000000     0.992180000000     0.025096   
C415     C      0.691490000000     0.815090000000     0.029530000000    -0.0743343  
C416     C      0.722250000000     0.815260000000     0.029570000000     0.0366294  
C417     C      0.737910000000     0.824320000000     0.991960000000    -0.134379   
C418     C      0.722160000000     0.833410000000     0.954470000000     0.0366003  
C419     C      0.643220000000     0.824540000000     0.992260000000     0.0251262  
C420     C      0.627650000000     0.849600000000     0.978510000000    -0.0745235  
C421     C      0.596900000000     0.849760000000     0.978730000000     0.0367154  
C422     C      0.581120000000     0.824680000000     0.992010000000    -0.13434    
C423     C      0.596740000000     0.799530000000     0.005460000000     0.0367244  
C424     C      0.627490000000     0.799560000000     0.005930000000    -0.0743389  
C425     C      0.500130000000     0.799480000000     0.693110000000    -0.0739664  
C426     C      0.492070000000     0.824810000000     0.716930000000     0.025071   
C427     C      0.483710000000     0.850140000000     0.693360000000    -0.0739756  
C428     C      0.483630000000     0.850210000000     0.647290000000     0.0365685  
C429     C      0.491530000000     0.824840000000     0.623640000000    -0.134336   
C430     C      0.499670000000     0.799440000000     0.647050000000     0.0365207  
C431     C      0.492400000000     0.824800000000     0.766070000000     0.0250895  
C432     C      0.484300000000     0.799480000000     0.789870000000    -0.0739812  
C433     C      0.484760000000     0.799420000000     0.835930000000     0.036518   
C434     C      0.492940000000     0.824800000000     0.859360000000    -0.134303   
C435     C      0.500880000000     0.850170000000     0.835730000000     0.0365418  
C436     C      0.500810000000     0.850110000000     0.789660000000    -0.0739964  
C437     C      0.483760000000     0.799730000000     0.289700000000    -0.0739474  
C438     C      0.492090000000     0.825040000000     0.266070000000     0.0251012  
C439     C      0.500240000000     0.850370000000     0.289830000000    -0.0740094  
C440     C      0.499890000000     0.850420000000     0.335900000000     0.0365723  
C441     C      0.491770000000     0.825040000000     0.359370000000    -0.134374   
C442     C      0.483800000000     0.799660000000     0.335770000000     0.0365132  
C443     C      0.492280000000     0.825040000000     0.216930000000     0.0250649  
C444     C      0.500570000000     0.799690000000     0.193320000000    -0.0739666  
C445     C      0.500530000000     0.799620000000     0.147250000000     0.0365342  
C446     C      0.492600000000     0.825000000000     0.123640000000    -0.13428    
C447     C      0.484520000000     0.850400000000     0.147080000000     0.0365269  
C448     C      0.484170000000     0.850360000000     0.193150000000    -0.0739288  
H1       H      0.174160000000     0.970420000000     0.559260000000     0.0458855  
H2       H      0.173220000000     0.916920000000     0.559240000000     0.0281165  
H3       H      0.144090000000     0.917300000000     0.423690000000     0.0283646  
H4       H      0.143730000000     0.970870000000     0.424180000000     0.0459676  
H5       H      0.174540000000     0.012430000000     0.424500000000     0.0458941  
H6       H      0.174270000000     0.065950000000     0.424500000000     0.0281205  
H7       H      0.144960000000     0.065940000000     0.559960000000     0.0283884  
H8       H      0.143930000000     0.012380000000     0.559480000000     0.0460012  
H9       H      0.143940000000     0.971200000000     0.923740000000     0.0459638  
H10      H      0.145000000000     0.917640000000     0.923270000000     0.0283798  
H11      H      0.174240000000     0.917650000000     0.058770000000     0.0281235  
H12      H      0.174490000000     0.971160000000     0.058770000000     0.0458748  
H13      H      0.143660000000     0.012710000000     0.059040000000     0.0459897  
H14      H      0.144000000000     0.066280000000     0.059530000000     0.0283506  
H15      H      0.173200000000     0.066670000000     0.924010000000     0.0281181  
H16      H      0.174160000000     0.013170000000     0.924000000000     0.0458994  
H17      H      0.972160000000     0.142950000000     0.559250000000     0.0459991  
H18      H      0.918600000000     0.143600000000     0.559710000000     0.0283834  
H19      H      0.918390000000     0.172840000000     0.424210000000     0.0281304  
H20      H      0.971900000000     0.173490000000     0.424220000000     0.0458978  
H21      H      0.013730000000     0.143050000000     0.424000000000     0.0459826  
H22      H      0.067290000000     0.143850000000     0.423590000000     0.0283804  
H23      H      0.067350000000     0.173100000000     0.559080000000     0.028125   
H24      H      0.013840000000     0.173600000000     0.559030000000     0.0458634  
H25      H      0.970330000000     0.174100000000     0.924030000000     0.045867   
H26      H      0.916820000000     0.173390000000     0.924060000000     0.0281     
H27      H      0.917100000000     0.144260000000     0.059610000000     0.028344   
H28      H      0.970660000000     0.143670000000     0.059110000000     0.0459885  
H29      H      0.012380000000     0.174210000000     0.058800000000     0.0458498  
H30      H      0.065890000000     0.173610000000     0.058800000000     0.0281223  
H31      H      0.065720000000     0.144380000000     0.923310000000     0.028359   
H32      H      0.012150000000     0.143670000000     0.923780000000     0.0459806  
H33      H      0.970460000000     0.809100000000     0.559040000000     0.0458543  
H34      H      0.916940000000     0.809680000000     0.559010000000     0.0281412  
H35      H      0.917150000000     0.838880000000     0.423500000000     0.0283815  
H36      H      0.970710000000     0.839610000000     0.424010000000     0.0459796  
H37      H      0.012520000000     0.809190000000     0.424290000000     0.0458362  
H38      H      0.066030000000     0.809910000000     0.424320000000     0.0281072  
H39      H      0.065750000000     0.839080000000     0.559850000000     0.028348   
H40      H      0.012180000000     0.839660000000     0.559350000000     0.0459863  
H41      H      0.809930000000     0.970600000000     0.424150000000     0.0458731  
H42      H      0.810310000000     0.917080000000     0.424160000000     0.0281242  
H43      H      0.839560000000     0.917160000000     0.559650000000     0.0283709  
H44      H      0.840470000000     0.970720000000     0.559170000000     0.0460026  
H45      H      0.810110000000     0.012580000000     0.558950000000     0.0458895  
H46      H      0.810940000000     0.066080000000     0.558990000000     0.0280968  
H47      H      0.840120000000     0.065830000000     0.423460000000     0.028347   
H48      H      0.840590000000     0.012260000000     0.423890000000     0.0460048  
H49      H      0.972170000000     0.840330000000     0.923900000000     0.0459995  
H50      H      0.918610000000     0.839550000000     0.923420000000     0.0283409  
H51      H      0.918470000000     0.810230000000     0.058880000000     0.028099   
H52      H      0.971980000000     0.809720000000     0.058880000000     0.0458903  
H53      H      0.013720000000     0.840280000000     0.059150000000     0.0460057  
H54      H      0.067280000000     0.839610000000     0.059600000000     0.0283591  
H55      H      0.067450000000     0.810420000000     0.924080000000     0.0281037  
H56      H      0.013940000000     0.809800000000     0.924100000000     0.0458872  
H57      H      0.810030000000     0.970420000000     0.924380000000     0.0458454  
H58      H      0.810870000000     0.916920000000     0.924310000000     0.0281294  
H59      H      0.840110000000     0.917140000000     0.059800000000     0.0283614  
H60      H      0.840570000000     0.970710000000     0.059410000000     0.0459691  
H61      H      0.809940000000     0.012400000000     0.059180000000     0.0458456  
H62      H      0.810320000000     0.065920000000     0.059130000000     0.0281139  
H63      H      0.839510000000     0.065810000000     0.923610000000     0.0283798  
H64      H      0.840430000000     0.012250000000     0.924120000000     0.0459793  
H65      H      0.203120000000     0.637840000000     0.516650000000     0.0468157  
H66      H      0.203430000000     0.584040000000     0.516170000000     0.0280255  
H67      H      0.113870000000     0.583850000000     0.468250000000     0.0280199  
H68      H      0.113800000000     0.637630000000     0.468340000000     0.0468995  
H69      H      0.141990000000     0.678360000000     0.425720000000     0.0468858  
H70      H      0.142050000000     0.732130000000     0.425400000000     0.0280066  
H71      H      0.174550000000     0.732350000000     0.559300000000     0.0283101  
H72      H      0.174750000000     0.678540000000     0.559260000000     0.04694    
H73      H      0.204010000000     0.345480000000     0.466730000000     0.0467612  
H74      H      0.203990000000     0.399280000000     0.467170000000     0.0280773  
H75      H      0.114430000000     0.398950000000     0.515110000000     0.0281052  
H76      H      0.114690000000     0.345160000000     0.515070000000     0.0468929  
H77      H      0.143110000000     0.304660000000     0.557740000000     0.0468746  
H78      H      0.143410000000     0.250890000000     0.558130000000     0.0280199  
H79      H      0.175930000000     0.250730000000     0.424240000000     0.0283123  
H80      H      0.175900000000     0.304550000000     0.424210000000     0.0469358  
H81      H      0.204060000000     0.638090000000     0.016600000000     0.0468191  
H82      H      0.204020000000     0.584290000000     0.016190000000     0.0280239  
H83      H      0.114470000000     0.584650000000     0.968210000000     0.0280639  
H84      H      0.114750000000     0.638440000000     0.968230000000     0.0468923  
H85      H      0.143200000000     0.678920000000     0.925550000000     0.0468507  
H86      H      0.143500000000     0.732690000000     0.925150000000     0.028028   
H87      H      0.175990000000     0.732860000000     0.059060000000     0.0283077  
H88      H      0.175950000000     0.679050000000     0.059100000000     0.046933   
H89      H      0.113730000000     0.345970000000     0.014930000000     0.0469389  
H90      H      0.113820000000     0.399760000000     0.015050000000     0.0280302  
H91      H      0.203390000000     0.399530000000     0.967160000000     0.0280231  
H92      H      0.203060000000     0.345740000000     0.966650000000     0.0467829  
H93      H      0.174680000000     0.305050000000     0.924010000000     0.0469243  
H94      H      0.174460000000     0.251240000000     0.923950000000     0.0283019  
H95      H      0.141920000000     0.251450000000     0.057840000000     0.0279977  
H96      H      0.141870000000     0.305220000000     0.057530000000     0.046854   
H97      H      0.113930000000     0.507160000000     0.772850000000     0.0458553  
H98      H      0.113770000000     0.506730000000     0.853080000000     0.0280766  
H99      H      0.204210000000     0.477520000000     0.853260000000     0.028114   
H100     H      0.204060000000     0.476640000000     0.773050000000     0.0458537  
H101     H      0.204070000000     0.506940000000     0.710280000000     0.045825   
H102     H      0.204220000000     0.506060000000     0.630080000000     0.0281518  
H103     H      0.113770000000     0.476880000000     0.630260000000     0.0281115  
H104     H      0.113930000000     0.476460000000     0.710490000000     0.0458525  
H105     H      0.203990000000     0.507020000000     0.210400000000     0.0458698  
H106     H      0.204160000000     0.506390000000     0.130190000000     0.0280935  
H107     H      0.113680000000     0.477300000000     0.130130000000     0.0280503  
H108     H      0.113830000000     0.476600000000     0.210350000000     0.045898   
H109     H      0.113830000000     0.507000000000     0.272990000000     0.0458484  
H110     H      0.113690000000     0.506300000000     0.353210000000     0.0280319  
H111     H      0.204150000000     0.477170000000     0.353140000000     0.0280933  
H112     H      0.203990000000     0.476550000000     0.272930000000     0.045851   
H113     H      0.346690000000     0.113500000000     0.468780000000     0.0468772  
H114     H      0.400480000000     0.113440000000     0.468700000000     0.0280666  
H115     H      0.400480000000     0.203020000000     0.516550000000     0.0280457  
H116     H      0.346690000000     0.202840000000     0.517030000000     0.0468037  
H117     H      0.305870000000     0.174570000000     0.559610000000     0.046955   
H118     H      0.252060000000     0.174500000000     0.559560000000     0.0283163  
H119     H      0.252300000000     0.141970000000     0.425680000000     0.0280377  
H120     H      0.306080000000     0.141780000000     0.426080000000     0.0468751  
H121     H      0.639200000000     0.113830000000     0.515290000000     0.0468713  
H122     H      0.585410000000     0.113670000000     0.515390000000     0.0280937  
H123     H      0.585220000000     0.203200000000     0.467360000000     0.0280443  
H124     H      0.639020000000     0.203130000000     0.466870000000     0.0467672  
H125     H      0.679880000000     0.174940000000     0.424320000000     0.046925   
H126     H      0.733690000000     0.174860000000     0.424270000000     0.0283014  
H127     H      0.733560000000     0.142360000000     0.558170000000     0.0280119  
H128     H      0.679790000000     0.142180000000     0.557870000000     0.0468531  
H129     H      0.345300000000     0.203240000000     0.016840000000     0.0468284  
H130     H      0.399100000000     0.203250000000     0.016500000000     0.0280102  
H131     H      0.398860000000     0.113730000000     0.968430000000     0.0280284  
H132     H      0.345070000000     0.113960000000     0.968370000000     0.04691    
H133     H      0.304570000000     0.142380000000     0.925690000000     0.0468493  
H134     H      0.250800000000     0.142640000000     0.925240000000     0.0280172  
H135     H      0.250560000000     0.175070000000     0.059180000000     0.0283254  
H136     H      0.304370000000     0.175070000000     0.059270000000     0.0468894  
H137     H      0.637650000000     0.202550000000     0.966780000000     0.046788   
H138     H      0.583850000000     0.202820000000     0.967400000000     0.0279991  
H139     H      0.583760000000     0.113270000000     0.015350000000     0.0280235  
H140     H      0.637540000000     0.113230000000     0.015130000000     0.046945   
H141     H      0.678280000000     0.141480000000     0.057660000000     0.0468323  
H142     H      0.732060000000     0.141640000000     0.057900000000     0.0280146  
H143     H      0.732140000000     0.174060000000     0.923950000000     0.0283258  
H144     H      0.678320000000     0.174160000000     0.924060000000     0.046926   
H145     H      0.507230000000     0.203510000000     0.773530000000     0.0458393  
H146     H      0.506100000000     0.203630000000     0.853720000000     0.0281221  
H147     H      0.476870000000     0.113200000000     0.853270000000     0.0280783  
H148     H      0.476690000000     0.113380000000     0.773040000000     0.0458712  
H149     H      0.507610000000     0.113380000000     0.710920000000     0.0458786  
H150     H      0.507420000000     0.113220000000     0.630690000000     0.0280987  
H151     H      0.478310000000     0.203690000000     0.630310000000     0.0281277  
H152     H      0.477190000000     0.203540000000     0.710510000000     0.0458401  
H153     H      0.507170000000     0.113110000000     0.210580000000     0.0458984  
H154     H      0.506240000000     0.112960000000     0.130370000000     0.0280725  
H155     H      0.477180000000     0.203450000000     0.130620000000     0.0280982  
H156     H      0.476790000000     0.203290000000     0.210830000000     0.0458442  
H157     H      0.507490000000     0.203280000000     0.273130000000     0.0458683  
H158     H      0.507120000000     0.203470000000     0.353340000000     0.0281004  
H159     H      0.477930000000     0.113020000000     0.353670000000     0.028084   
H160     H      0.476980000000     0.113140000000     0.273450000000     0.0458718  
H161     H      0.810780000000     0.304560000000     0.559650000000     0.0468916  
H162     H      0.810650000000     0.250750000000     0.559590000000     0.0283273  
H163     H      0.842730000000     0.250890000000     0.425450000000     0.0280322  
H164     H      0.843110000000     0.304660000000     0.425860000000     0.0468771  
H165     H      0.871380000000     0.345530000000     0.468060000000     0.0469527  
H166     H      0.871130000000     0.399340000000     0.467760000000     0.0283366  
H167     H      0.781810000000     0.398890000000     0.516660000000     0.0280912  
H168     H      0.782290000000     0.345130000000     0.517330000000     0.0467593  
H169     H      0.840100000000     0.678370000000     0.557940000000     0.0468479  
H170     H      0.840130000000     0.732130000000     0.558220000000     0.0280666  
H171     H      0.808120000000     0.732370000000     0.424060000000     0.0283529  
H172     H      0.807830000000     0.678550000000     0.424120000000     0.0469296  
H173     H      0.779600000000     0.637470000000     0.466220000000     0.046801   
H174     H      0.779800000000     0.583640000000     0.466500000000     0.0283242  
H175     H      0.869100000000     0.584250000000     0.515500000000     0.0281324  
H176     H      0.868670000000     0.638000000000     0.515590000000     0.0468457  
H177     H      0.807730000000     0.304500000000     0.058730000000     0.0469333  
H178     H      0.808000000000     0.250680000000     0.058910000000     0.028331   
H179     H      0.839990000000     0.250800000000     0.924730000000     0.0280561  
H180     H      0.839960000000     0.304550000000     0.924900000000     0.0468379  
H181     H      0.868560000000     0.344940000000     0.967150000000     0.046837   
H182     H      0.869030000000     0.398690000000     0.967150000000     0.0281168  
H183     H      0.779740000000     0.399390000000     0.016180000000     0.0283458  
H184     H      0.779510000000     0.345560000000     0.016560000000     0.0468594  
H185     H      0.782380000000     0.637890000000     0.965440000000     0.0467638  
H186     H      0.781870000000     0.584130000000     0.966010000000     0.0280561  
H187     H      0.871190000000     0.583600000000     0.014910000000     0.0283275  
H188     H      0.871470000000     0.637410000000     0.014710000000     0.0469362  
H189     H      0.843210000000     0.678260000000     0.056990000000     0.0468532  
H190     H      0.842830000000     0.732040000000     0.057510000000     0.0280347  
H191     H      0.810750000000     0.732290000000     0.923380000000     0.0283413  
H192     H      0.810880000000     0.678490000000     0.923210000000     0.0469073  
H193     H      0.780270000000     0.506680000000     0.772670000000     0.0458792  
H194     H      0.780130000000     0.505900000000     0.852880000000     0.0280681  
H195     H      0.870570000000     0.476680000000     0.852740000000     0.0280283  
H196     H      0.870390000000     0.476150000000     0.772520000000     0.04588    
H197     H      0.870400000000     0.506790000000     0.710100000000     0.0459177  
H198     H      0.870580000000     0.506270000000     0.629880000000     0.0280111  
H199     H      0.780120000000     0.477110000000     0.629740000000     0.0280611  
H200     H      0.780260000000     0.476330000000     0.709950000000     0.0458684  
H201     H      0.870560000000     0.506790000000     0.272620000000     0.0458835  
H202     H      0.870710000000     0.506080000000     0.352830000000     0.028479   
H203     H      0.780330000000     0.476620000000     0.352730000000     0.0284946  
H204     H      0.780510000000     0.476080000000     0.272510000000     0.045886   
H205     H      0.870550000000     0.476150000000     0.210000000000     0.0458392  
H206     H      0.870690000000     0.476860000000     0.129780000000     0.0285297  
H207     H      0.780340000000     0.506400000000     0.129890000000     0.0285442  
H208     H      0.780520000000     0.506930000000     0.210110000000     0.0458525  
H209     H      0.345220000000     0.869510000000     0.515070000000     0.0469263  
H210     H      0.399010000000     0.869650000000     0.515070000000     0.0280437  
H211     H      0.399130000000     0.780130000000     0.467000000000     0.0280268  
H212     H      0.345330000000     0.780220000000     0.466610000000     0.0468282  
H213     H      0.304470000000     0.808450000000     0.424120000000     0.0468878  
H214     H      0.250660000000     0.808510000000     0.424150000000     0.0283517  
H215     H      0.250870000000     0.840940000000     0.558090000000     0.0280097  
H216     H      0.304640000000     0.841150000000     0.557710000000     0.0468387  
H217     H      0.637690000000     0.780480000000     0.516530000000     0.0467818  
H218     H      0.583890000000     0.780280000000     0.516000000000     0.0280492  
H219     H      0.583890000000     0.869850000000     0.468110000000     0.028052   
H220     H      0.637680000000     0.869810000000     0.468240000000     0.0468839  
H221     H      0.678350000000     0.841530000000     0.425630000000     0.0468891  
H222     H      0.732120000000     0.841330000000     0.425320000000     0.0280107  
H223     H      0.732250000000     0.808850000000     0.559240000000     0.0283005  
H224     H      0.678440000000     0.808790000000     0.559190000000     0.0469451  
H225     H      0.305930000000     0.808950000000     0.923810000000     0.0469086  
H226     H      0.252120000000     0.809090000000     0.923800000000     0.0283264  
H227     H      0.252330000000     0.841630000000     0.057680000000     0.0280315  
H228     H      0.306100000000     0.841760000000     0.057330000000     0.046849   
H229     H      0.346790000000     0.869970000000     0.014680000000     0.0469286  
H230     H      0.400580000000     0.869940000000     0.014810000000     0.0280655  
H231     H      0.400470000000     0.780370000000     0.966960000000     0.0280434  
H232     H      0.346670000000     0.780630000000     0.966440000000     0.0467873  
H233     H      0.679950000000     0.808010000000     0.058920000000     0.0469051  
H234     H      0.733760000000     0.808050000000     0.058910000000     0.0283415  
H235     H      0.733580000000     0.840610000000     0.925040000000     0.0280346  
H236     H      0.679810000000     0.840830000000     0.925410000000     0.0468411  
H237     H      0.639290000000     0.869200000000     0.968070000000     0.046891   
H238     H      0.585510000000     0.869450000000     0.968060000000     0.0280697  
H239     H      0.585210000000     0.779900000000     0.016020000000     0.0280655  
H240     H      0.639010000000     0.779890000000     0.016420000000     0.0467389  
H241     H      0.476820000000     0.869890000000     0.710450000000     0.045865   
H242     H      0.477020000000     0.870080000000     0.630220000000     0.0280662  
H243     H      0.506120000000     0.779600000000     0.629790000000     0.028118   
H244     H      0.507230000000     0.779720000000     0.709980000000     0.0458271  
H245     H      0.477170000000     0.779740000000     0.772980000000     0.045835   
H246     H      0.478270000000     0.779580000000     0.853180000000     0.0281197  
H247     H      0.507530000000     0.870010000000     0.852820000000     0.0280777  
H248     H      0.507730000000     0.869850000000     0.772590000000     0.0458858  
H249     H      0.507320000000     0.870110000000     0.272910000000     0.0458878  
H250     H      0.506390000000     0.870260000000     0.353130000000     0.0280584  
H251     H      0.477190000000     0.779820000000     0.352880000000     0.0281137  
H252     H      0.476800000000     0.779980000000     0.272670000000     0.0458333  
H253     H      0.507490000000     0.779940000000     0.210370000000     0.0458521  
H254     H      0.507110000000     0.779750000000     0.130150000000     0.0281089  
H255     H      0.478060000000     0.870250000000     0.129840000000     0.0280809  
H256     H      0.477120000000     0.870130000000     0.210050000000     0.0458423  
O1       O      0.492810000000     0.849550000000     0.054040000000    -0.546153   
O2       O      0.493170000000     0.849450000000     0.928870000000    -0.546341   
O3       O      0.451230000000     0.849620000000     0.991430000000    -0.546184   
O4       O      0.534770000000     0.849400000000     0.991480000000    -0.546037   
O5       O      0.534640000000     0.800180000000     0.991950000000    -0.546322   
O6       O      0.451100000000     0.800400000000     0.991120000000    -0.546167   
O7       O      0.492950000000     0.800240000000     0.928960000000    -0.546411   
O8       O      0.492770000000     0.800340000000     0.054120000000    -0.546242   
O9       O      0.491320000000     0.849510000000     0.554130000000    -0.546336   
O10      O      0.491630000000     0.849600000000     0.428960000000    -0.546367   
O11      O      0.449700000000     0.849520000000     0.491550000000    -0.546507   
O12      O      0.533220000000     0.849600000000     0.491540000000    -0.546643   
O13      O      0.533280000000     0.800390000000     0.491840000000    -0.546398   
O14      O      0.449740000000     0.800310000000     0.491080000000    -0.546407   
O15      O      0.491580000000     0.800390000000     0.428880000000    -0.546384   
O16      O      0.491450000000     0.800300000000     0.554030000000    -0.546669   
O17      O      0.850000000000     0.491220000000     0.928690000000    -0.546461   
O18      O      0.850070000000     0.490820000000     0.053840000000    -0.546341   
O19      O      0.849500000000     0.449370000000     0.990840000000    -0.546928   
O20      O      0.850570000000     0.532890000000     0.991670000000    -0.545918   
O21      O      0.801370000000     0.533540000000     0.990450000000    -0.546947   
O22      O      0.800290000000     0.450010000000     0.992200000000    -0.545323   
O23      O      0.800880000000     0.492360000000     0.053910000000    -0.54619    
O24      O      0.800790000000     0.491410000000     0.928760000000    -0.546306   
O25      O      0.850070000000     0.492140000000     0.428780000000    -0.546506   
O26      O      0.850000000000     0.491750000000     0.553930000000    -0.546464   
O27      O      0.850550000000     0.450070000000     0.490950000000    -0.545639   
O28      O      0.849530000000     0.533600000000     0.491780000000    -0.546994   
O29      O      0.800330000000     0.532990000000     0.490420000000    -0.545594   
O30      O      0.801340000000     0.449460000000     0.492170000000    -0.54674    
O31      O      0.800790000000     0.491590000000     0.553860000000    -0.546361   
O32      O      0.800890000000     0.490640000000     0.428710000000    -0.546528   
O33      O      0.491190000000     0.133740000000     0.929370000000    -0.546289   
O34      O      0.491510000000     0.133640000000     0.054540000000    -0.546236   
O35      O      0.449570000000     0.133790000000     0.991950000000    -0.546477   
O36      O      0.533100000000     0.133590000000     0.991950000000    -0.546466   
O37      O      0.533230000000     0.182800000000     0.991640000000    -0.546222   
O38      O      0.449680000000     0.183000000000     0.992430000000    -0.546302   
O39      O      0.491540000000     0.182850000000     0.054620000000    -0.546234   
O40      O      0.491390000000     0.182950000000     0.929460000000    -0.546497   
O41      O      0.493100000000     0.133790000000     0.554620000000    -0.546333   
O42      O      0.492720000000     0.133690000000     0.429460000000    -0.546219   
O43      O      0.534690000000     0.133790000000     0.492000000000    -0.54626    
O44      O      0.451150000000     0.133690000000     0.492090000000    -0.546224   
O45      O      0.451090000000     0.182910000000     0.492390000000    -0.54623    
O46      O      0.534640000000     0.183000000000     0.491520000000    -0.546101   
O47      O      0.492760000000     0.182910000000     0.429380000000    -0.546205   
O48      O      0.492960000000     0.183000000000     0.554540000000    -0.54637    
O49      O      0.134330000000     0.491970000000     0.054240000000    -0.546209   
O50      O      0.134360000000     0.492300000000     0.929070000000    -0.546382   
O51      O      0.134190000000     0.450380000000     0.991640000000    -0.546293   
O52      O      0.134490000000     0.533910000000     0.991670000000    -0.546473   
O53      O      0.183700000000     0.533740000000     0.992090000000    -0.546453   
O54      O      0.183410000000     0.450200000000     0.991290000000    -0.54605    
O55      O      0.183570000000     0.492050000000     0.929110000000    -0.546403   
O56      O      0.183540000000     0.491890000000     0.054260000000    -0.546387   
O57      O      0.134330000000     0.491620000000     0.429100000000    -0.546484   
O58      O      0.134360000000     0.491300000000     0.554260000000    -0.546166   
O59      O      0.134220000000     0.533220000000     0.491690000000    -0.546522   
O60      O      0.134470000000     0.449690000000     0.491680000000    -0.546354   
O61      O      0.183690000000     0.449830000000     0.491260000000    -0.546132   
O62      O      0.183430000000     0.533370000000     0.492050000000    -0.546342   
O63      O      0.183580000000     0.491530000000     0.554230000000    -0.546218   
O64      O      0.183540000000     0.491680000000     0.429070000000    -0.546414   
O65      O      0.867960000000     0.824550000000     0.028060000000    -0.547305   
O66      O      0.784450000000     0.824010000000     0.028570000000    -0.545715   
O67      O      0.826610000000     0.782620000000     0.027840000000    -0.546561   
O68      O      0.826050000000     0.866190000000     0.028700000000    -0.545035   
O69      O      0.825670000000     0.866510000000     0.954970000000    -0.547412   
O70      O      0.826060000000     0.783010000000     0.954110000000    -0.546025   
O71      O      0.784200000000     0.824710000000     0.954840000000    -0.546691   
O72      O      0.867760000000     0.825060000000     0.954340000000    -0.54557    
O73      O      0.866480000000     0.824290000000     0.528220000000    -0.547255   
O74      O      0.782970000000     0.824590000000     0.528820000000    -0.545989   
O75      O      0.824680000000     0.782780000000     0.528230000000    -0.546725   
O76      O      0.824990000000     0.866340000000     0.528720000000    -0.545442   
O77      O      0.824580000000     0.866540000000     0.454990000000    -0.547347   
O78      O      0.824090000000     0.783020000000     0.454500000000    -0.545773   
O79      O      0.782680000000     0.825150000000     0.455090000000    -0.54677    
O80      O      0.866240000000     0.824660000000     0.454490000000    -0.545316   
O81      O      0.824540000000     0.116470000000     0.028220000000    -0.547124   
O82      O      0.823980000000     0.199990000000     0.028560000000    -0.545684   
O83      O      0.782610000000     0.157840000000     0.028080000000    -0.546597   
O84      O      0.866160000000     0.158390000000     0.028620000000    -0.545309   
O85      O      0.866380000000     0.158700000000     0.954890000000    -0.547194   
O86      O      0.782870000000     0.158330000000     0.954340000000    -0.545802   
O87      O      0.824550000000     0.200170000000     0.954830000000    -0.546888   
O88      O      0.824930000000     0.116620000000     0.954490000000    -0.545552   
O89      O      0.825680000000     0.116500000000     0.528240000000    -0.547468   
O90      O      0.825990000000     0.200000000000     0.528960000000    -0.546021   
O91      O      0.784160000000     0.158270000000     0.528320000000    -0.546817   
O92      O      0.867720000000     0.157990000000     0.528790000000    -0.545415   
O93      O      0.867910000000     0.158450000000     0.455060000000    -0.547255   
O94      O      0.784400000000     0.158910000000     0.454600000000    -0.545888   
O95      O      0.826530000000     0.200340000000     0.455230000000    -0.546663   
O96      O      0.826030000000     0.116770000000     0.454510000000    -0.545114   
O97      O      0.158090000000     0.117260000000     0.028580000000    -0.545335   
O98      O      0.157920000000     0.200830000000     0.028050000000    -0.546695   
O99      O      0.116360000000     0.159090000000     0.028040000000    -0.547215   
O100     O      0.199870000000     0.159240000000     0.028700000000    -0.545761   
O101     O      0.200180000000     0.158670000000     0.954970000000    -0.546833   
O102     O      0.116620000000     0.158710000000     0.954310000000    -0.545341   
O103     O      0.158540000000     0.200570000000     0.954330000000    -0.545902   
O104     O      0.158520000000     0.117060000000     0.954860000000    -0.54755    
O105     O      0.159950000000     0.116500000000     0.455260000000    -0.547218   
O106     O      0.160120000000     0.200020000000     0.454650000000    -0.545718   
O107     O      0.201700000000     0.158050000000     0.455360000000    -0.546804   
O108     O      0.118140000000     0.158220000000     0.454640000000    -0.54531    
O109     O      0.117860000000     0.158630000000     0.528370000000    -0.547466   
O110     O      0.201370000000     0.158660000000     0.529090000000    -0.545801   
O111     O      0.159470000000     0.200300000000     0.528380000000    -0.546748   
O112     O      0.159500000000     0.116740000000     0.528990000000    -0.545391   
O113     O      0.117920000000     0.824930000000     0.954860000000    -0.54746    
O114     O      0.201430000000     0.824940000000     0.954220000000    -0.545813   
O115     O      0.159550000000     0.783280000000     0.954900000000    -0.546778   
O116     O      0.159540000000     0.866840000000     0.954270000000    -0.545401   
O117     O      0.159960000000     0.867090000000     0.028000000000    -0.547195   
O118     O      0.160170000000     0.783570000000     0.028630000000    -0.54564    
O119     O      0.201730000000     0.825560000000     0.027950000000    -0.546734   
O120     O      0.118170000000     0.825350000000     0.028590000000    -0.545093   
O121     O      0.116470000000     0.824470000000     0.455160000000    -0.547519   
O122     O      0.199980000000     0.824360000000     0.454580000000    -0.545754   
O123     O      0.158040000000     0.782760000000     0.455180000000    -0.54678    
O124     O      0.158180000000     0.866320000000     0.454650000000    -0.545271   
O125     O      0.158570000000     0.866530000000     0.528380000000    -0.547324   
O126     O      0.158630000000     0.783020000000     0.528910000000    -0.54594    
O127     O      0.200250000000     0.824930000000     0.528310000000    -0.546833   
O128     O      0.116690000000     0.824850000000     0.528880000000    -0.545343   
V1       V      0.493000000000     0.851480000000     0.991450000000     1.38629    
V2       V      0.492870000000     0.798320000000     0.991540000000     1.38697    
V3       V      0.491460000000     0.851530000000     0.491550000000     1.38723    
V4       V      0.491510000000     0.798370000000     0.491460000000     1.38726    
V5       V      0.852010000000     0.491070000000     0.991260000000     1.38714    
V6       V      0.798860000000     0.491840000000     0.991340000000     1.38658    
V7       V      0.852010000000     0.491890000000     0.491360000000     1.38702    
V8       V      0.798860000000     0.491170000000     0.491280000000     1.38682    
V9       V      0.491330000000     0.131720000000     0.991950000000     1.38692    
V10      V      0.491460000000     0.184880000000     0.992040000000     1.38659    
V11      V      0.492920000000     0.131770000000     0.492050000000     1.38679    
V12      V      0.492860000000     0.184930000000     0.491950000000     1.38664    
V13      V      0.132370000000     0.492150000000     0.991650000000     1.38676    
V14      V      0.185530000000     0.491970000000     0.991690000000     1.38707    
V15      V      0.132370000000     0.491450000000     0.491680000000     1.38704    
V16      V      0.185530000000     0.491610000000     0.491650000000     1.38695    
V17      V      0.826250000000     0.824350000000     0.031250000000     1.38649    
V18      V      0.825940000000     0.824810000000     0.951610000000     1.38717    
V19      V      0.824770000000     0.824520000000     0.531450000000     1.38697    
V20      V      0.824410000000     0.824830000000     0.451810000000     1.38654    
V21      V      0.824340000000     0.158190000000     0.031330000000     1.38676    
V22      V      0.824670000000     0.158440000000     0.951690000000     1.38713    
V23      V      0.825900000000     0.158200000000     0.531530000000     1.38739    
V24      V      0.826200000000     0.158610000000     0.451890000000     1.38642    
V25      V      0.158070000000     0.159090000000     0.031300000000     1.38674    
V26      V      0.158450000000     0.158760000000     0.951660000000     1.38691    
V27      V      0.159970000000     0.158210000000     0.452020000000     1.38656    
V28      V      0.159560000000     0.158570000000     0.531660000000     1.38701    
V29      V      0.159620000000     0.825010000000     0.951610000000     1.3869     
V30      V      0.160000000000     0.825380000000     0.031250000000     1.38661    
V31      V      0.158170000000     0.824490000000     0.451940000000     1.38699    
V32      V      0.158520000000     0.824820000000     0.531580000000     1.38694    


