data_structure

_audit_creation_method RASPA-1.0
_audit_creation_date 2023-5-22
_audit_author_name 'Poobodin Mano'

_cell_length_a    30.335
_cell_length_b    30.3351
_cell_length_c    60.6159
_cell_angle_alpha 90
_cell_angle_beta  90
_cell_angle_gamma 90
_cell_volume      55779.7

_symmetry_cell_setting          triclinic
_symmetry_space_group_name_Hall 'P 1'
_symmetry_space_group_name_H-M  'P 1'
_symmetry_Int_Tables_number     1

_symmetry_equiv_pos_as_xyz 'x,y,z'

loop_
_atom_site_label
_atom_site_type_symbol
_atom_site_fract_x
_atom_site_fract_y
_atom_site_fract_z
_atom_site_charge
C1       C      0.991490000000     0.910430000000     0.117070000000     0.434716   
C2       C      0.991950000000     0.077150000000     0.117260000000     0.434349   
C3       C      0.991700000000     0.993580000000     0.158870000000     0.4344     
C4       C      0.991730000000     0.993950000000     0.075430000000     0.434463   
C5       C      0.991610000000     0.493540000000     0.075420000000     0.434417   
C6       C      0.991820000000     0.494100000000     0.158860000000     0.434347   
C7       C      0.991920000000     0.577170000000     0.117030000000     0.434621   
C8       C      0.991490000000     0.410450000000     0.117280000000     0.434485   
C9       C      0.491220000000     0.906080000000     0.117280000000     0.434495   
C10      C      0.491680000000     0.072800000000     0.117080000000     0.434571   
C11      C      0.491480000000     0.989270000000     0.075450000000     0.434601   
C12      C      0.491440000000     0.989670000000     0.158880000000     0.434576   
C13      C      0.491620000000     0.489760000000     0.075440000000     0.434639   
C14      C      0.491280000000     0.489060000000     0.158870000000     0.434899   
C15      C      0.491250000000     0.406060000000     0.117010000000     0.434749   
C16      C      0.491680000000     0.572780000000     0.117330000000     0.434324   
C17      C      0.991550000000     0.993060000000     0.908630000000     0.434564   
C18      C      0.991480000000     0.992740000000     0.825200000000     0.434463   
C19      C      0.991280000000     0.076260000000     0.866840000000     0.434409   
C20      C      0.991730000000     0.909540000000     0.866970000000     0.434531   
C21      C      0.991490000000     0.492900000000     0.908620000000     0.4345     
C22      C      0.991390000000     0.492890000000     0.825190000000     0.434769   
C23      C      0.991220000000     0.576260000000     0.866890000000     0.434437   
C24      C      0.991670000000     0.409540000000     0.866890000000     0.434734   
C25      C      0.492100000000     0.907150000000     0.866830000000     0.43477    
C26      C      0.491660000000     0.073870000000     0.867000000000     0.434482   
C27      C      0.491810000000     0.990310000000     0.908650000000     0.434291   
C28      C      0.491920000000     0.990690000000     0.825220000000     0.434696   
C29      C      0.491710000000     0.573860000000     0.866890000000     0.434591   
C30      C      0.492150000000     0.407150000000     0.866930000000     0.434559   
C31      C      0.491880000000     0.490530000000     0.908640000000     0.434593   
C32      C      0.491990000000     0.490470000000     0.825210000000     0.434852   
C33      C      0.991540000000     0.992030000000     0.325200000000     0.434635   
C34      C      0.991520000000     0.991560000000     0.408630000000     0.434584   
C35      C      0.074900000000     0.992000000000     0.366910000000     0.434285   
C36      C      0.908180000000     0.991550000000     0.366900000000     0.434515   
C37      C      0.908050000000     0.491260000000     0.366840000000     0.434736   
C38      C      0.074770000000     0.491680000000     0.366980000000     0.434563   
C39      C      0.991610000000     0.492550000000     0.325200000000     0.43456    
C40      C      0.991210000000     0.490460000000     0.408630000000     0.434579   
C41      C      0.491520000000     0.991300000000     0.325220000000     0.43455    
C42      C      0.491570000000     0.991810000000     0.408650000000     0.43463    
C43      C      0.574900000000     0.991800000000     0.366910000000     0.434511   
C44      C      0.408180000000     0.991360000000     0.366930000000     0.43457    
C45      C      0.491630000000     0.492170000000     0.408640000000     0.434646   
C46      C      0.491220000000     0.490190000000     0.325220000000     0.434949   
C47      C      0.408050000000     0.491000000000     0.367000000000     0.434567   
C48      C      0.574780000000     0.491420000000     0.366850000000     0.434729   
C49      C      0.991770000000     0.991540000000     0.575430000000     0.434562   
C50      C      0.991630000000     0.991890000000     0.658870000000     0.434675   
C51      C      0.075060000000     0.991490000000     0.617200000000     0.434137   
C52      C      0.908340000000     0.991940000000     0.617130000000     0.434642   
C53      C      0.991830000000     0.490450000000     0.575420000000     0.434577   
C54      C      0.991480000000     0.491530000000     0.658850000000     0.434651   
C55      C      0.908290000000     0.491260000000     0.617060000000     0.434551   
C56      C      0.075010000000     0.490810000000     0.617250000000     0.434777   
C57      C      0.491790000000     0.991580000000     0.658880000000     0.434715   
C58      C      0.491600000000     0.991910000000     0.575450000000     0.434221   
C59      C      0.575060000000     0.991530000000     0.617140000000     0.434434   
C60      C      0.408340000000     0.991970000000     0.617220000000     0.434479   
C61      C      0.408290000000     0.492000000000     0.617270000000     0.434813   
C62      C      0.575010000000     0.491550000000     0.617070000000     0.434642   
C63      C      0.491850000000     0.491370000000     0.658870000000     0.434872   
C64      C      0.491430000000     0.492260000000     0.575440000000     0.434659   
C65      C      0.789870000000     0.453470000000     0.623230000000    -0.074072   
C66      C      0.766220000000     0.491390000000     0.616990000000     0.0251417  
C67      C      0.789940000000     0.529290000000     0.610780000000    -0.0738607  
C68      C      0.836020000000     0.529360000000     0.610950000000     0.0365011  
C69      C      0.859510000000     0.491350000000     0.617050000000    -0.134304   
C70      C      0.835930000000     0.453380000000     0.623120000000     0.0365223  
C71      C      0.717080000000     0.491410000000     0.616990000000     0.0251213  
C72      C      0.693360000000     0.453490000000     0.610810000000    -0.0738684  
C73      C      0.647280000000     0.453430000000     0.610980000000     0.036557   
C74      C      0.623790000000     0.491450000000     0.617050000000    -0.134334   
C75      C      0.647370000000     0.529440000000     0.623100000000     0.036478   
C76      C      0.693430000000     0.529340000000     0.623210000000    -0.0740099  
C77      C      0.193550000000     0.453210000000     0.611180000000    -0.0738296  
C78      C      0.217080000000     0.491280000000     0.617340000000     0.0251429  
C79      C      0.193230000000     0.529090000000     0.623530000000    -0.0740821  
C80      C      0.147170000000     0.528960000000     0.623380000000     0.0366049  
C81      C      0.123790000000     0.490850000000     0.617330000000    -0.134347   
C82      C      0.147470000000     0.452920000000     0.611320000000     0.0365515  
C83      C      0.266220000000     0.491540000000     0.617350000000     0.0251516  
C84      C      0.290070000000     0.453740000000     0.623560000000    -0.0740693  
C85      C      0.336120000000     0.453870000000     0.623420000000     0.036606   
C86      C      0.359510000000     0.491970000000     0.617360000000    -0.134381   
C87      C      0.335830000000     0.529880000000     0.611310000000     0.036557   
C88      C      0.289750000000     0.529590000000     0.611160000000    -0.0738805  
C89      C      0.790000000000     0.953920000000     0.623330000000    -0.0740386  
C90      C      0.766260000000     0.991780000000     0.617110000000     0.0250102  
C91      C      0.789900000000     0.029760000000     0.610920000000    -0.0737167  
C92      C      0.835980000000     0.029930000000     0.611080000000     0.036656   
C93      C      0.859550000000     0.991970000000     0.617150000000    -0.134406   
C94      C      0.836060000000     0.953930000000     0.623210000000     0.0365157  
C95      C      0.717130000000     0.991670000000     0.617110000000     0.0250047  
C96      C      0.693490000000     0.953700000000     0.610920000000    -0.0738384  
C97      C      0.647410000000     0.953530000000     0.611090000000     0.0365712  
C98      C      0.623840000000     0.991490000000     0.617150000000    -0.134429   
C99      C      0.647330000000     0.029530000000     0.623210000000     0.0366246  
C100     C      0.693390000000     0.029540000000     0.623330000000    -0.0739101  
C101     C      0.193370000000     0.029540000000     0.623450000000    -0.0738382  
C102     C      0.217130000000     0.991670000000     0.617250000000     0.0249584  
C103     C      0.193510000000     0.953680000000     0.611060000000    -0.0737629  
C104     C      0.147430000000     0.953490000000     0.611210000000     0.0364184  
C105     C      0.123840000000     0.991470000000     0.617250000000    -0.134241   
C106     C      0.147310000000     0.029520000000     0.623310000000     0.0365633  
C107     C      0.266270000000     0.991800000000     0.617250000000     0.0250429  
C108     C      0.289890000000     0.029790000000     0.611070000000    -0.0737266  
C109     C      0.335970000000     0.029970000000     0.611230000000     0.0366412  
C110     C      0.359550000000     0.992000000000     0.617270000000    -0.13435    
C111     C      0.336080000000     0.953950000000     0.623330000000     0.0365053  
C112     C      0.290020000000     0.953930000000     0.623460000000    -0.0740515  
C113     C      0.479570000000     0.530800000000     0.467820000000    -0.0737165  
C114     C      0.491650000000     0.492850000000     0.479750000000     0.025135   
C115     C      0.503970000000     0.454830000000     0.467960000000    -0.0739214  
C116     C      0.503750000000     0.454610000000     0.444910000000     0.0365773  
C117     C      0.491810000000     0.492570000000     0.433060000000    -0.134101   
C118     C      0.479930000000     0.530740000000     0.444750000000     0.0364552  
C119     C      0.491380000000     0.492830000000     0.504340000000     0.025197   
C120     C      0.503850000000     0.530650000000     0.516250000000    -0.0738714  
C121     C      0.503550000000     0.530570000000     0.539310000000     0.0365039  
C122     C      0.491320000000     0.492520000000     0.551030000000    -0.134284   
C123     C      0.479020000000     0.454660000000     0.539180000000     0.0364882  
C124     C      0.478760000000     0.454910000000     0.516130000000    -0.0738593  
C125     C      0.503910000000     0.029950000000     0.516210000000    -0.0736559  
C126     C      0.491530000000     0.992040000000     0.504340000000     0.0249408  
C127     C      0.479120000000     0.954110000000     0.516190000000    -0.0737564  
C128     C      0.479410000000     0.953990000000     0.539240000000     0.0363706  
C129     C      0.491540000000     0.991980000000     0.551030000000    -0.134129   
C130     C      0.503630000000     0.030000000000     0.539270000000     0.0365053  
C131     C      0.491590000000     0.992020000000     0.479750000000     0.0251404  
C132     C      0.479220000000     0.029930000000     0.467880000000    -0.0738526  
C133     C      0.479510000000     0.029950000000     0.444820000000     0.0367037  
C134     C      0.491610000000     0.991920000000     0.433060000000    -0.134494   
C135     C      0.503730000000     0.953950000000     0.444870000000     0.0366059  
C136     C      0.504000000000     0.954080000000     0.467920000000    -0.073949   
C137     C      0.004370000000     0.527720000000     0.516090000000    -0.073789   
C138     C      0.991700000000     0.489780000000     0.504320000000     0.0250738  
C139     C      0.979280000000     0.451970000000     0.516260000000    -0.0738948  
C140     C      0.979660000000     0.452080000000     0.539320000000     0.0365531  
C141     C      0.991910000000     0.490150000000     0.551010000000    -0.134463   
C142     C      0.004170000000     0.527990000000     0.539140000000     0.0367057  
C143     C      0.991340000000     0.489750000000     0.479730000000     0.0250294  
C144     C      0.978970000000     0.527760000000     0.467950000000    -0.0739371  
C145     C      0.979120000000     0.527990000000     0.444900000000     0.0366416  
C146     C      0.991050000000     0.490040000000     0.433040000000    -0.134399   
C147     C      0.002970000000     0.451860000000     0.444730000000     0.0366366  
C148     C      0.003390000000     0.451800000000     0.467790000000    -0.0735992  
C149     C      0.789650000000     0.453360000000     0.360580000000    -0.073962   
C150     C      0.765980000000     0.491310000000     0.366770000000     0.025175   
C151     C      0.789680000000     0.529190000000     0.373000000000    -0.0740466  
C152     C      0.835740000000     0.529220000000     0.372890000000     0.0366071  
C153     C      0.859270000000     0.491210000000     0.366830000000    -0.13441    
C154     C      0.835720000000     0.453230000000     0.360750000000     0.03658    
C155     C      0.716850000000     0.491370000000     0.366780000000     0.0250974  
C156     C      0.693180000000     0.529320000000     0.360590000000    -0.0738651  
C157     C      0.647100000000     0.529460000000     0.360770000000     0.0365025  
C158     C      0.623560000000     0.491470000000     0.366840000000    -0.134383   
C159     C      0.647080000000     0.453450000000     0.372890000000     0.0365933  
C160     C      0.693140000000     0.453470000000     0.373000000000    -0.0740264  
C161     C      0.193080000000     0.453580000000     0.360820000000    -0.0739852  
C162     C      0.216850000000     0.491420000000     0.367050000000     0.0251155  
C163     C      0.193240000000     0.529410000000     0.373240000000    -0.0738245  
C164     C      0.147160000000     0.529630000000     0.373060000000     0.0364645  
C165     C      0.123560000000     0.491680000000     0.366980000000    -0.134171   
C166     C      0.147020000000     0.453630000000     0.360920000000     0.0364936  
C167     C      0.265980000000     0.491270000000     0.367060000000     0.0251359  
C168     C      0.289590000000     0.453260000000     0.373230000000    -0.0738365  
C169     C      0.335670000000     0.453050000000     0.373060000000     0.0365302  
C170     C      0.359270000000     0.491000000000     0.366990000000    -0.134322   
C171     C      0.335810000000     0.529060000000     0.360950000000     0.0365927  
C172     C      0.289750000000     0.529120000000     0.360840000000    -0.0740649  
C173     C      0.979370000000     0.953480000000     0.516200000000    -0.0739452  
C174     C      0.991720000000     0.991390000000     0.504330000000     0.0250115  
C175     C      0.004150000000     0.029320000000     0.516160000000    -0.0736903  
C176     C      0.003900000000     0.029440000000     0.539220000000     0.0368685  
C177     C      0.991790000000     0.991470000000     0.551020000000    -0.134636   
C178     C      0.979680000000     0.953440000000     0.539260000000     0.0365659  
C179     C      0.991620000000     0.991390000000     0.479740000000     0.0248867  
C180     C      0.003970000000     0.953480000000     0.467860000000    -0.0737047  
C181     C      0.003640000000     0.953440000000     0.444800000000     0.0365794  
C182     C      0.991520000000     0.991470000000     0.433050000000    -0.134387   
C183     C      0.979410000000     0.029450000000     0.444850000000     0.036558   
C184     C      0.979180000000     0.029320000000     0.467910000000    -0.0737003  
C185     C      0.693240000000     0.953830000000     0.360690000000    -0.0740178  
C186     C      0.716970000000     0.991720000000     0.366890000000     0.0250118  
C187     C      0.693320000000     0.029690000000     0.373070000000    -0.0737287  
C188     C      0.647240000000     0.029840000000     0.372920000000     0.0366282  
C189     C      0.623680000000     0.991850000000     0.366870000000    -0.134402   
C190     C      0.647180000000     0.953810000000     0.360820000000     0.0365068  
C191     C      0.766110000000     0.991630000000     0.366890000000     0.0250266  
C192     C      0.789760000000     0.953660000000     0.373070000000    -0.0738406  
C193     C      0.835840000000     0.953510000000     0.372920000000     0.036516   
C194     C      0.859400000000     0.991500000000     0.366870000000    -0.134409   
C195     C      0.835900000000     0.029530000000     0.360810000000     0.0366455  
C196     C      0.789830000000     0.029520000000     0.360680000000    -0.0739433  
C197     C      0.193360000000     0.029750000000     0.373100000000    -0.0736392  
C198     C      0.216970000000     0.991760000000     0.366920000000     0.0249713  
C199     C      0.193200000000     0.953910000000     0.360690000000    -0.0739625  
C200     C      0.147140000000     0.953950000000     0.360810000000     0.0364473  
C201     C      0.123680000000     0.992010000000     0.366870000000    -0.134294   
C202     C      0.147280000000     0.029960000000     0.372940000000     0.0365642  
C203     C      0.266100000000     0.991600000000     0.366920000000     0.0249923  
C204     C      0.289880000000     0.029450000000     0.360700000000    -0.0738749  
C205     C      0.335940000000     0.029400000000     0.360820000000     0.0366231  
C206     C      0.359390000000     0.991350000000     0.366890000000    -0.134359   
C207     C      0.335790000000     0.953400000000     0.372960000000     0.0364608  
C208     C      0.289710000000     0.953610000000     0.373110000000    -0.0738059  
C209     C      0.529550000000     0.504290000000     0.766000000000    -0.0745721  
C210     C      0.492060000000     0.490620000000     0.754250000000     0.0253144  
C211     C      0.454570000000     0.476850000000     0.765960000000    -0.0745818  
C212     C      0.454410000000     0.477140000000     0.789020000000     0.0368261  
C213     C      0.492030000000     0.490480000000     0.800810000000    -0.134495   
C214     C      0.529670000000     0.503870000000     0.789060000000     0.0368417  
C215     C      0.492050000000     0.490780000000     0.729830000000     0.0252859  
C216     C      0.505750000000     0.528360000000     0.718160000000    -0.0745547  
C217     C      0.505350000000     0.528680000000     0.695110000000     0.0368549  
C218     C      0.491950000000     0.491140000000     0.683270000000    -0.134524   
C219     C      0.478630000000     0.453420000000     0.694970000000     0.0368766  
C220     C      0.478320000000     0.453380000000     0.718030000000    -0.0745803  
C221     C      0.454440000000     0.977310000000     0.765970000000    -0.0745937  
C222     C      0.491920000000     0.991100000000     0.754260000000     0.0252006  
C223     C      0.529420000000     0.004750000000     0.766010000000    -0.0744314  
C224     C      0.529570000000     0.004250000000     0.789070000000     0.0369068  
C225     C      0.491930000000     0.990820000000     0.800820000000    -0.134538   
C226     C      0.454300000000     0.977530000000     0.789030000000     0.0368281  
C227     C      0.491910000000     0.991230000000     0.729840000000     0.0251677  
C228     C      0.478180000000     0.953800000000     0.718070000000    -0.0745354  
C229     C      0.478490000000     0.953770000000     0.695010000000     0.0367715  
C230     C      0.491830000000     0.991470000000     0.683280000000    -0.134553   
C231     C      0.505220000000     0.029040000000     0.695090000000     0.0369087  
C232     C      0.505610000000     0.028780000000     0.718150000000    -0.0744017  
C233     C      0.453860000000     0.692310000000     0.873000000000    -0.0738258  
C234     C      0.491850000000     0.715940000000     0.866820000000     0.0251121  
C235     C      0.529720000000     0.692190000000     0.860630000000    -0.0739715  
C236     C      0.529720000000     0.646120000000     0.860770000000     0.0364141  
C237     C      0.491670000000     0.622650000000     0.866830000000    -0.134185   
C238     C      0.453690000000     0.646240000000     0.872860000000     0.0364925  
C239     C      0.491960000000     0.765070000000     0.866810000000     0.0250965  
C240     C      0.454100000000     0.788820000000     0.860580000000    -0.0739966  
C241     C      0.454110000000     0.834880000000     0.860700000000     0.0364793  
C242     C      0.492140000000     0.858360000000     0.866780000000    -0.134254   
C243     C      0.530110000000     0.834780000000     0.872850000000     0.0364884  
C244     C      0.529940000000     0.788710000000     0.873000000000    -0.0738288  
C245     C      0.453850000000     0.192320000000     0.873190000000    -0.0738359  
C246     C      0.491840000000     0.215940000000     0.867010000000     0.0251309  
C247     C      0.529720000000     0.192180000000     0.860820000000    -0.0740031  
C248     C      0.529700000000     0.146120000000     0.860940000000     0.0364584  
C249     C      0.491640000000     0.122650000000     0.866990000000    -0.134212   
C250     C      0.453660000000     0.146240000000     0.873030000000     0.0364767  
C251     C      0.491970000000     0.265070000000     0.867000000000     0.0250838  
C252     C      0.454120000000     0.288820000000     0.860760000000    -0.0739607  
C253     C      0.454140000000     0.334880000000     0.860860000000     0.0364394  
C254     C      0.492180000000     0.358360000000     0.866920000000    -0.134168   
C255     C      0.530140000000     0.334780000000     0.873000000000     0.0364556  
C256     C      0.529950000000     0.288710000000     0.873180000000    -0.0737881  
C257     C      0.005060000000     0.529680000000     0.717990000000    -0.0744172  
C258     C      0.991330000000     0.492310000000     0.729810000000     0.0251673  
C259     C      0.977620000000     0.454700000000     0.718170000000    -0.074557   
C260     C      0.978020000000     0.454320000000     0.695120000000     0.0368449  
C261     C      0.991400000000     0.491820000000     0.683250000000    -0.134547   
C262     C      0.004740000000     0.529580000000     0.694930000000     0.036911   
C263     C      0.991320000000     0.492550000000     0.754230000000     0.0252025  
C264     C      0.028810000000     0.506340000000     0.765930000000    -0.0744534  
C265     C      0.028970000000     0.506120000000     0.788990000000     0.0369886  
C266     C      0.991360000000     0.492820000000     0.800790000000    -0.134629   
C267     C      0.953710000000     0.479400000000     0.789050000000     0.0368142  
C268     C      0.953840000000     0.478910000000     0.765990000000    -0.0745408  
C269     C      0.005250000000     0.029680000000     0.718050000000    -0.0743991  
C270     C      0.991520000000     0.992250000000     0.729820000000     0.025137   
C271     C      0.977820000000     0.954700000000     0.718140000000    -0.0746239  
C272     C      0.978210000000     0.954440000000     0.695080000000     0.036925   
C273     C      0.991590000000     0.992010000000     0.683260000000    -0.134939   
C274     C      0.004930000000     0.029700000000     0.694990000000     0.03721    
C275     C      0.991500000000     0.992380000000     0.754250000000     0.0250858  
C276     C      0.028980000000     0.006160000000     0.765960000000    -0.0743342  
C277     C      0.029110000000     0.005930000000     0.789020000000     0.0371114  
C278     C      0.991480000000     0.992630000000     0.800800000000    -0.134696   
C279     C      0.953850000000     0.979210000000     0.789050000000     0.0368347  
C280     C      0.954000000000     0.978720000000     0.765990000000    -0.0745838  
C281     C      0.029530000000     0.791080000000     0.873140000000    -0.0736805  
C282     C      0.991540000000     0.767460000000     0.866960000000     0.0249648  
C283     C      0.953670000000     0.791230000000     0.860760000000    -0.0739564  
C284     C      0.953690000000     0.837280000000     0.860890000000     0.0364681  
C285     C      0.991750000000     0.860760000000     0.866940000000    -0.134369   
C286     C      0.029720000000     0.837160000000     0.872990000000     0.0365796  
C287     C      0.991410000000     0.718330000000     0.866940000000     0.0250063  
C288     C      0.029260000000     0.694580000000     0.860710000000    -0.0738515  
C289     C      0.029240000000     0.648520000000     0.860820000000     0.0366072  
C290     C      0.991190000000     0.625040000000     0.866870000000    -0.134412   
C291     C      0.953240000000     0.648620000000     0.872950000000     0.0365327  
C292     C      0.953430000000     0.694700000000     0.873130000000    -0.0738446  
C293     C      0.953660000000     0.291220000000     0.860640000000    -0.0740012  
C294     C      0.991530000000     0.267470000000     0.866830000000     0.0250101  
C295     C      0.029520000000     0.291090000000     0.873020000000    -0.0737046  
C296     C      0.029690000000     0.337170000000     0.872880000000     0.0366447  
C297     C      0.991710000000     0.360760000000     0.866840000000    -0.134477   
C298     C      0.953660000000     0.337280000000     0.860780000000     0.0365141  
C299     C      0.991420000000     0.218330000000     0.866820000000     0.0250114  
C300     C      0.953450000000     0.194690000000     0.873010000000    -0.0738047  
C301     C      0.953280000000     0.148620000000     0.872850000000     0.0365451  
C302     C      0.991240000000     0.125040000000     0.866790000000    -0.134379   
C303     C      0.029280000000     0.148530000000     0.860720000000     0.0366197  
C304     C      0.029290000000     0.194590000000     0.860600000000    -0.073925   
C305     C      0.504920000000     0.451760000000     0.266120000000    -0.0745036  
C306     C      0.490920000000     0.488990000000     0.254260000000     0.0252711  
C307     C      0.476960000000     0.526550000000     0.265860000000    -0.0746335  
C308     C      0.477360000000     0.527030000000     0.288910000000     0.0367994  
C309     C      0.491040000000     0.489690000000     0.300820000000    -0.134491   
C310     C      0.504620000000     0.451960000000     0.289180000000     0.0367308  
C311     C      0.490940000000     0.488730000000     0.229830000000     0.0253295  
C312     C      0.528530000000     0.475180000000     0.218140000000    -0.0745417  
C313     C      0.528780000000     0.475590000000     0.195080000000     0.0367583  
C314     C      0.491150000000     0.488860000000     0.183270000000    -0.134433   
C315     C      0.453390000000     0.501980000000     0.195010000000     0.0367877  
C316     C      0.453430000000     0.502270000000     0.218070000000    -0.0745922  
C317     C      0.529740000000     0.502790000000     0.967910000000    -0.0737746  
C318     C      0.491810000000     0.490350000000     0.979750000000     0.0250762  
C319     C      0.453900000000     0.478000000000     0.967870000000    -0.0737998  
C320     C      0.453840000000     0.478360000000     0.944820000000     0.0364685  
C321     C      0.491850000000     0.490500000000     0.933060000000    -0.13412    
C322     C      0.529850000000     0.502580000000     0.944850000000     0.0363884  
C323     C      0.491790000000     0.490250000000     0.004340000000     0.0252379  
C324     C      0.529700000000     0.477800000000     0.016190000000    -0.0739298  
C325     C      0.529730000000     0.477930000000     0.039250000000     0.0365289  
C326     C      0.491700000000     0.489960000000     0.051030000000    -0.134315   
C327     C      0.453720000000     0.502160000000     0.039250000000     0.0365214  
C328     C      0.453850000000     0.502590000000     0.016190000000    -0.0739447  
C329     C      0.477790000000     0.028280000000     0.265910000000    -0.0744651  
C330     C      0.491500000000     0.990670000000     0.254260000000     0.0251854  
C331     C      0.505220000000     0.953300000000     0.266070000000    -0.0745303  
C332     C      0.504890000000     0.953370000000     0.289130000000     0.036767   
C333     C      0.491530000000     0.991110000000     0.300820000000    -0.134506   
C334     C      0.478170000000     0.028630000000     0.288960000000     0.0369597  
C335     C      0.491480000000     0.990430000000     0.229840000000     0.0251944  
C336     C      0.453980000000     0.004010000000     0.218080000000    -0.0744188  
C337     C      0.453820000000     0.003390000000     0.195020000000     0.0369424  
C338     C      0.491440000000     0.989900000000     0.183280000000    -0.13454    
C339     C      0.529080000000     0.976670000000     0.195080000000     0.0368176  
C340     C      0.528960000000     0.976580000000     0.218140000000    -0.0745915  
C341     C      0.453650000000     0.001870000000     0.016200000000    -0.0736977  
C342     C      0.491600000000     0.989550000000     0.004340000000     0.0249872  
C343     C      0.529490000000     0.977080000000     0.016200000000    -0.0737692  
C344     C      0.529530000000     0.977230000000     0.039260000000     0.0364138  
C345     C      0.491500000000     0.989290000000     0.051030000000    -0.134283   
C346     C      0.453520000000     0.001460000000     0.039250000000     0.0366026  
C347     C      0.491670000000     0.989740000000     0.979750000000     0.0250399  
C348     C      0.453770000000     0.977440000000     0.967850000000    -0.0738622  
C349     C      0.453740000000     0.977910000000     0.944800000000     0.0364486  
C350     C      0.491770000000     0.990120000000     0.933070000000    -0.134188   
C351     C      0.529750000000     0.002140000000     0.944890000000     0.0365656  
C352     C      0.529620000000     0.002230000000     0.967940000000    -0.073712   
C353     C      0.453400000000     0.787610000000     0.111200000000    -0.0738435  
C354     C      0.491380000000     0.764000000000     0.117410000000     0.0251212  
C355     C      0.529230000000     0.787770000000     0.123630000000    -0.0740038  
C356     C      0.529220000000     0.833830000000     0.123470000000     0.0364593  
C357     C      0.491190000000     0.857290000000     0.117370000000    -0.13418    
C358     C      0.453230000000     0.833690000000     0.111320000000     0.0364614  
C359     C      0.491510000000     0.714860000000     0.117420000000     0.0250842  
C360     C      0.453640000000     0.691100000000     0.123610000000    -0.0739763  
C361     C      0.453650000000     0.645040000000     0.123460000000     0.0363859  
C362     C      0.491720000000     0.621570000000     0.117420000000    -0.134085   
C363     C      0.529700000000     0.645160000000     0.111400000000     0.0364247  
C364     C      0.529520000000     0.691240000000     0.111260000000    -0.0737845  
C365     C      0.529510000000     0.191210000000     0.110800000000    -0.0738277  
C366     C      0.491520000000     0.214860000000     0.116950000000     0.0251141  
C367     C      0.453640000000     0.191140000000     0.123170000000    -0.0740133  
C368     C      0.453650000000     0.145080000000     0.123080000000     0.0365021  
C369     C      0.491710000000     0.121580000000     0.117060000000    -0.134262   
C370     C      0.529690000000     0.145140000000     0.111000000000     0.0365326  
C371     C      0.491420000000     0.264000000000     0.116940000000     0.0251892  
C372     C      0.529270000000     0.287730000000     0.123180000000    -0.0740819  
C373     C      0.529260000000     0.333790000000     0.123070000000     0.0365692  
C374     C      0.491230000000     0.357280000000     0.117000000000    -0.134363   
C375     C      0.453280000000     0.333710000000     0.110900000000     0.0365571  
C376     C      0.453460000000     0.287630000000     0.110730000000    -0.0738793  
C377     C      0.977970000000     0.531100000000     0.266120000000    -0.0744315  
C378     C      0.991990000000     0.493900000000     0.254240000000     0.0251258  
C379     C      0.005930000000     0.456320000000     0.265820000000    -0.0744273  
C380     C      0.005490000000     0.455780000000     0.288880000000     0.0368088  
C381     C      0.991790000000     0.493100000000     0.300800000000    -0.134496   
C382     C      0.978230000000     0.530850000000     0.289180000000     0.0366853  
C383     C      0.992020000000     0.494230000000     0.229820000000     0.025162   
C384     C      0.954450000000     0.507820000000     0.218110000000    -0.0745221  
C385     C      0.954260000000     0.507470000000     0.195050000000     0.0367839  
C386     C      0.991910000000     0.494240000000     0.183260000000    -0.134507   
C387     C      0.029640000000     0.481080000000     0.195000000000     0.0369029  
C388     C      0.029550000000     0.480720000000     0.218060000000    -0.0744261  
C389     C      0.029460000000     0.480810000000     0.016180000000    -0.0738133  
C390     C      0.991530000000     0.493150000000     0.004320000000     0.0250959  
C391     C      0.953610000000     0.505600000000     0.016170000000    -0.0739109  
C392     C      0.953560000000     0.505430000000     0.039230000000     0.0365673  
C393     C      0.991570000000     0.493380000000     0.051010000000    -0.134479   
C394     C      0.029560000000     0.481210000000     0.039240000000     0.0367011  
C395     C      0.991520000000     0.493070000000     0.979730000000     0.0249436  
C396     C      0.029440000000     0.505420000000     0.967860000000    -0.0736085  
C397     C      0.029520000000     0.505080000000     0.944800000000     0.0364819  
C398     C      0.991500000000     0.492940000000     0.933040000000    -0.134233   
C399     C      0.953510000000     0.480860000000     0.944830000000     0.0364695  
C400     C      0.953600000000     0.480640000000     0.967880000000    -0.0737746  
C401     C      0.005270000000     0.955020000000     0.265900000000    -0.0743954  
C402     C      0.991570000000     0.992620000000     0.254250000000     0.025091   
C403     C      0.977840000000     0.030000000000     0.266050000000    -0.0744588  
C404     C      0.978170000000     0.029940000000     0.289110000000     0.0369781  
C405     C      0.991530000000     0.992210000000     0.300800000000    -0.134721   
C406     C      0.004890000000     0.954670000000     0.288960000000     0.0369464  
C407     C      0.991600000000     0.992850000000     0.229820000000     0.0250486  
C408     C      0.029110000000     0.979260000000     0.218070000000    -0.0743777  
C409     C      0.029290000000     0.979870000000     0.195010000000     0.0369245  
C410     C      0.991680000000     0.993360000000     0.183270000000    -0.134649   
C411     C      0.954030000000     0.006600000000     0.195060000000     0.0369591  
C412     C      0.954140000000     0.006700000000     0.218110000000    -0.0744116  
C413     C      0.029620000000     0.981380000000     0.016190000000    -0.073773   
C414     C      0.991680000000     0.993700000000     0.004330000000     0.0249476  
C415     C      0.953770000000     0.006170000000     0.016180000000    -0.0737761  
C416     C      0.953720000000     0.006000000000     0.039240000000     0.0366951  
C417     C      0.991730000000     0.993930000000     0.051020000000    -0.134596   
C418     C      0.029720000000     0.981770000000     0.039240000000     0.0366839  
C419     C      0.991640000000     0.993540000000     0.979740000000     0.0249028  
C420     C      0.029550000000     0.005850000000     0.967850000000    -0.0736161  
C421     C      0.029600000000     0.005400000000     0.944800000000     0.0367366  
C422     C      0.991580000000     0.993210000000     0.933050000000    -0.13441    
C423     C      0.953590000000     0.981180000000     0.944860000000     0.0364443  
C424     C      0.953700000000     0.981070000000     0.967920000000    -0.0738227  
C425     C      0.029520000000     0.792100000000     0.123190000000    -0.0738982  
C426     C      0.991650000000     0.768370000000     0.116970000000     0.0250185  
C427     C      0.953670000000     0.792010000000     0.110810000000    -0.0738454  
C428     C      0.953490000000     0.838090000000     0.110990000000     0.0365696  
C429     C      0.991460000000     0.861660000000     0.117060000000    -0.134561   
C430     C      0.029510000000     0.838150000000     0.123100000000     0.0366885  
C431     C      0.991760000000     0.719230000000     0.116960000000     0.0250559  
C432     C      0.029730000000     0.695600000000     0.110770000000    -0.0737886  
C433     C      0.029900000000     0.649520000000     0.110940000000     0.0367487  
C434     C      0.991950000000     0.625950000000     0.117020000000    -0.134533   
C435     C      0.953910000000     0.649440000000     0.123080000000     0.0366039  
C436     C      0.953890000000     0.695490000000     0.123190000000    -0.0740936  
C437     C      0.953660000000     0.291990000000     0.111190000000    -0.0738046  
C438     C      0.991660000000     0.268370000000     0.117370000000     0.0249859  
C439     C      0.029530000000     0.292130000000     0.123560000000    -0.0738659  
C440     C      0.029510000000     0.338200000000     0.123420000000     0.0365839  
C441     C      0.991460000000     0.361660000000     0.117360000000    -0.134314   
C442     C      0.953480000000     0.338070000000     0.111330000000     0.0364616  
C443     C      0.991790000000     0.219230000000     0.117360000000     0.0249949  
C444     C      0.953930000000     0.195470000000     0.123570000000    -0.0739822  
C445     C      0.953940000000     0.149400000000     0.123410000000     0.0364068  
C446     C      0.991990000000     0.125940000000     0.117340000000    -0.134234   
C447     C      0.029950000000     0.149540000000     0.111290000000     0.0365686  
C448     C      0.029770000000     0.195620000000     0.111160000000    -0.0736592  
H1       H      0.772980000000     0.558860000000     0.605490000000     0.045981   
H2       H      0.853210000000     0.559060000000     0.606010000000     0.0284608  
H3       H      0.853050000000     0.423650000000     0.628080000000     0.0281253  
H4       H      0.772860000000     0.423930000000     0.628510000000     0.0458932  
H5       H      0.710320000000     0.423910000000     0.605530000000     0.045983   
H6       H      0.630080000000     0.423720000000     0.606050000000     0.0284554  
H7       H      0.630250000000     0.559180000000     0.628040000000     0.0281392  
H8       H      0.710450000000     0.558900000000     0.628470000000     0.045859   
H9       H      0.210070000000     0.558750000000     0.628780000000     0.0458888  
H10      H      0.129900000000     0.558640000000     0.628290000000     0.0281199  
H11      H      0.130420000000     0.423120000000     0.606400000000     0.028394   
H12      H      0.210670000000     0.423700000000     0.605930000000     0.0459819  
H13      H      0.273220000000     0.424090000000     0.628830000000     0.0458711  
H14      H      0.353400000000     0.424210000000     0.628350000000     0.0281089  
H15      H      0.352890000000     0.559670000000     0.606380000000     0.0283747  
H16      H      0.272640000000     0.559080000000     0.605890000000     0.0460057  
H17      H      0.772870000000     0.059300000000     0.605640000000     0.0459679  
H18      H      0.853110000000     0.059680000000     0.606150000000     0.028411   
H19      H      0.853260000000     0.924230000000     0.628160000000     0.0281292  
H20      H      0.773070000000     0.924320000000     0.628600000000     0.0458623  
H21      H      0.710530000000     0.924160000000     0.605640000000     0.045962   
H22      H      0.630280000000     0.923780000000     0.606160000000     0.028412   
H23      H      0.630140000000     0.059230000000     0.628150000000     0.0281368  
H24      H      0.710330000000     0.059140000000     0.628590000000     0.0458661  
H25      H      0.210560000000     0.924140000000     0.605800000000     0.0459625  
H26      H      0.130310000000     0.923740000000     0.606280000000     0.0284553  
H27      H      0.130100000000     0.059220000000     0.628240000000     0.0281501  
H28      H      0.210290000000     0.059150000000     0.628720000000     0.0458449  
H29      H      0.272850000000     0.059330000000     0.605800000000     0.0459812  
H30      H      0.353090000000     0.059720000000     0.606300000000     0.0284081  
H31      H      0.353280000000     0.924250000000     0.628260000000     0.0281206  
H32      H      0.273100000000     0.924330000000     0.628730000000     0.0458768  
H33      H      0.514340000000     0.425250000000     0.476500000000     0.0459092  
H34      H      0.513480000000     0.424760000000     0.436390000000     0.0281819  
H35      H      0.470240000000     0.560440000000     0.436100000000     0.0283895  
H36      H      0.469160000000     0.560470000000     0.476270000000     0.0459784  
H37      H      0.514520000000     0.560230000000     0.507800000000     0.046017   
H38      H      0.513520000000     0.560190000000     0.547960000000     0.0284292  
H39      H      0.469040000000     0.424920000000     0.547710000000     0.0284156  
H40      H      0.468110000000     0.425430000000     0.507580000000     0.0459536  
H41      H      0.468580000000     0.924550000000     0.507680000000     0.0459457  
H42      H      0.469560000000     0.924260000000     0.547820000000     0.0284836  
H43      H      0.513500000000     0.059710000000     0.547860000000     0.0284358  
H44      H      0.514440000000     0.059530000000     0.507720000000     0.0459354  
H45      H      0.468680000000     0.059510000000     0.476360000000     0.0459977  
H46      H      0.469650000000     0.059660000000     0.436210000000     0.028376   
H47      H      0.513590000000     0.924200000000     0.436300000000     0.0284474  
H48      H      0.514530000000     0.924530000000     0.476440000000     0.0460031  
H49      H      0.968590000000     0.422390000000     0.507820000000     0.0459997  
H50      H      0.969710000000     0.422470000000     0.547980000000     0.0283922  
H51      H      0.014170000000     0.557750000000     0.547660000000     0.0284299  
H52      H      0.014980000000     0.557190000000     0.507530000000     0.0460046  
H53      H      0.968620000000     0.557340000000     0.476500000000     0.0458768  
H54      H      0.969370000000     0.557830000000     0.436390000000     0.0281505  
H55      H      0.012640000000     0.422170000000     0.436060000000     0.0283925  
H56      H      0.013820000000     0.422130000000     0.476240000000     0.045993   
H57      H      0.772720000000     0.558770000000     0.378280000000     0.0459547  
H58      H      0.852910000000     0.558930000000     0.377850000000     0.0281517  
H59      H      0.852880000000     0.423500000000     0.355810000000     0.0283864  
H60      H      0.772640000000     0.423820000000     0.355290000000     0.0459265  
H61      H      0.710180000000     0.558880000000     0.355310000000     0.0458926  
H62      H      0.629940000000     0.559190000000     0.355850000000     0.0284085  
H63      H      0.629920000000     0.423730000000     0.377830000000     0.0281565  
H64      H      0.710110000000     0.423890000000     0.378260000000     0.0459626  
H65      H      0.210290000000     0.558930000000     0.378520000000     0.0459929  
H66      H      0.130040000000     0.559380000000     0.377990000000     0.0284273  
H67      H      0.129810000000     0.423940000000     0.355970000000     0.0281434  
H68      H      0.209990000000     0.423960000000     0.355550000000     0.0458512  
H69      H      0.272530000000     0.423730000000     0.378500000000     0.0459841  
H70      H      0.352780000000     0.423290000000     0.377980000000     0.0283959  
H71      H      0.353020000000     0.558760000000     0.356010000000     0.0281098  
H72      H      0.272840000000     0.558740000000     0.355580000000     0.0458771  
H73      H      0.014670000000     0.058880000000     0.507650000000     0.0460268  
H74      H      0.013770000000     0.059190000000     0.547790000000     0.0284337  
H75      H      0.969830000000     0.923730000000     0.547870000000     0.0283873  
H76      H      0.968820000000     0.923900000000     0.507720000000     0.0459521  
H77      H      0.014520000000     0.923900000000     0.476340000000     0.0459733  
H78      H      0.013480000000     0.923730000000     0.436200000000     0.0284268  
H79      H      0.969540000000     0.059190000000     0.436280000000     0.0284706  
H80      H      0.968660000000     0.058880000000     0.476420000000     0.0459492  
H81      H      0.710340000000     0.059240000000     0.378330000000     0.0459832  
H82      H      0.630100000000     0.059580000000     0.377830000000     0.0284056  
H83      H      0.630000000000     0.924090000000     0.355900000000     0.0280991  
H84      H      0.710180000000     0.924230000000     0.355430000000     0.0458542  
H85      H      0.772740000000     0.924110000000     0.378340000000     0.0459678  
H86      H      0.852980000000     0.923770000000     0.377840000000     0.0283963  
H87      H      0.853080000000     0.059250000000     0.355880000000     0.028097   
H88      H      0.772890000000     0.059110000000     0.355420000000     0.0458813  
H89      H      0.210120000000     0.924300000000     0.355420000000     0.0458501  
H90      H      0.129930000000     0.924270000000     0.355870000000     0.0281868  
H91      H      0.130170000000     0.059720000000     0.377870000000     0.0284579  
H92      H      0.210420000000     0.059280000000     0.378380000000     0.0459543  
H93      H      0.272970000000     0.059060000000     0.355420000000     0.0458554  
H94      H      0.353150000000     0.059090000000     0.355880000000     0.028152   
H95      H      0.352890000000     0.923650000000     0.377890000000     0.0284341  
H96      H      0.272650000000     0.924090000000     0.378390000000     0.045972   
H97      H      0.425160000000     0.466420000000     0.757270000000     0.0469367  
H98      H      0.424950000000     0.466510000000     0.797610000000     0.0279571  
H99      H      0.559110000000     0.514460000000     0.797670000000     0.0279447  
H100     H      0.558960000000     0.514800000000     0.757330000000     0.0469181  
H101     H      0.516240000000     0.557700000000     0.726900000000     0.0469168  
H102     H      0.515940000000     0.558200000000     0.686560000000     0.0279628  
H103     H      0.467980000000     0.424040000000     0.686320000000     0.0279117  
H104     H      0.467850000000     0.423910000000     0.726660000000     0.0469211  
H105     H      0.558820000000     0.015270000000     0.757340000000     0.0469355  
H106     H      0.559010000000     0.014820000000     0.797680000000     0.0279745  
H107     H      0.424850000000     0.966870000000     0.797610000000     0.0279493  
H108     H      0.425030000000     0.966890000000     0.757280000000     0.0469268  
H109     H      0.467720000000     0.924340000000     0.726710000000     0.0469084  
H110     H      0.467870000000     0.924370000000     0.686380000000     0.0279656  
H111     H      0.515810000000     0.058530000000     0.686530000000     0.0279398  
H112     H      0.516100000000     0.058140000000     0.726870000000     0.0469078  
H113     H      0.559330000000     0.709110000000     0.855360000000     0.0458413  
H114     H      0.559430000000     0.628920000000     0.855860000000     0.0281465  
H115     H      0.423940000000     0.629110000000     0.877790000000     0.0284391  
H116     H      0.424310000000     0.709360000000     0.878250000000     0.0459734  
H117     H      0.424510000000     0.771880000000     0.855300000000     0.045854   
H118     H      0.424410000000     0.852080000000     0.855760000000     0.0281312  
H119     H      0.559850000000     0.851910000000     0.877780000000     0.0284333  
H120     H      0.559470000000     0.771670000000     0.878280000000     0.0459775  
H121     H      0.559330000000     0.209100000000     0.855560000000     0.0458707  
H122     H      0.559400000000     0.128920000000     0.856020000000     0.0281642  
H123     H      0.423910000000     0.129120000000     0.877950000000     0.0284445  
H124     H      0.424310000000     0.209360000000     0.878450000000     0.0459963  
H125     H      0.424520000000     0.271880000000     0.855490000000     0.0458516  
H126     H      0.424450000000     0.352070000000     0.855910000000     0.0281581  
H127     H      0.559880000000     0.351920000000     0.877930000000     0.0284429  
H128     H      0.559480000000     0.271670000000     0.878470000000     0.0459639  
H129     H      0.967140000000     0.425380000000     0.726930000000     0.0469059  
H130     H      0.967420000000     0.424780000000     0.686590000000     0.0279569  
H131     H      0.015370000000     0.558940000000     0.686250000000     0.0279706  
H132     H      0.015520000000     0.559180000000     0.726600000000     0.046912   
H133     H      0.058220000000     0.516760000000     0.757230000000     0.0469175  
H134     H      0.058430000000     0.516780000000     0.797570000000     0.0279311  
H135     H      0.924270000000     0.468830000000     0.797670000000     0.0279477  
H136     H      0.924420000000     0.468380000000     0.757330000000     0.046898   
H137     H      0.967330000000     0.925330000000     0.726850000000     0.0469154  
H138     H      0.967610000000     0.924940000000     0.686510000000     0.0279045  
H139     H      0.015560000000     0.059110000000     0.686360000000     0.0279274  
H140     H      0.015710000000     0.059130000000     0.726700000000     0.0469456  
H141     H      0.058400000000     0.016580000000     0.757270000000     0.0469263  
H142     H      0.058560000000     0.016590000000     0.797600000000     0.0279531  
H143     H      0.924400000000     0.968640000000     0.797660000000     0.027922   
H144     H      0.924600000000     0.968200000000     0.757320000000     0.0469122  
H145     H      0.924050000000     0.774300000000     0.855500000000     0.0458216  
H146     H      0.923990000000     0.854490000000     0.855970000000     0.0281383  
H147     H      0.059470000000     0.854280000000     0.877910000000     0.0284146  
H148     H      0.059070000000     0.774030000000     0.878400000000     0.0459624  
H149     H      0.058870000000     0.711520000000     0.855440000000     0.0458274  
H150     H      0.058930000000     0.631330000000     0.855870000000     0.0281315  
H151     H      0.923490000000     0.631490000000     0.877880000000     0.0284115  
H152     H      0.923900000000     0.711730000000     0.878420000000     0.0459714  
H153     H      0.059070000000     0.274050000000     0.878280000000     0.0459708  
H154     H      0.059440000000     0.354300000000     0.877800000000     0.0284143  
H155     H      0.923950000000     0.354470000000     0.855860000000     0.0281149  
H156     H      0.924050000000     0.274290000000     0.855370000000     0.0458424  
H157     H      0.923910000000     0.211730000000     0.878300000000     0.0459521  
H158     H      0.923540000000     0.131490000000     0.877790000000     0.0284337  
H159     H      0.058980000000     0.131330000000     0.855780000000     0.0281407  
H160     H      0.058880000000     0.211520000000     0.855330000000     0.0458883  
H161     H      0.466270000000     0.555760000000     0.257080000000     0.0468975  
H162     H      0.466570000000     0.556550000000     0.297390000000     0.0279859  
H163     H      0.515480000000     0.422730000000     0.297890000000     0.0282489  
H164     H      0.515600000000     0.422310000000     0.257540000000     0.046973   
H165     H      0.557960000000     0.464850000000     0.226850000000     0.046926   
H166     H      0.558320000000     0.465160000000     0.186510000000     0.0279825  
H167     H      0.423940000000     0.512500000000     0.186390000000     0.0279978  
H168     H      0.423940000000     0.512610000000     0.226720000000     0.0469121  
H169     H      0.424320000000     0.467440000000     0.976360000000     0.0459503  
H170     H      0.424120000000     0.468520000000     0.936210000000     0.0284605  
H171     H      0.559580000000     0.512460000000     0.936280000000     0.0284537  
H172     H      0.559310000000     0.513290000000     0.976420000000     0.0459456  
H173     H      0.559280000000     0.467320000000     0.007690000000     0.0460046  
H174     H      0.559440000000     0.468020000000     0.047840000000     0.0284211  
H175     H      0.423980000000     0.511960000000     0.047830000000     0.0284309  
H176     H      0.424300000000     0.513170000000     0.007700000000     0.0460119  
H177     H      0.515690000000     0.923800000000     0.257460000000     0.0468802  
H178     H      0.515500000000     0.924000000000     0.297790000000     0.0279644  
H179     H      0.467560000000     0.058160000000     0.297500000000     0.0279491  
H180     H      0.467310000000     0.057600000000     0.257160000000     0.0469476  
H181     H      0.424580000000     0.014590000000     0.226740000000     0.0469257  
H182     H      0.424360000000     0.013920000000     0.186400000000     0.0279676  
H183     H      0.558520000000     0.965960000000     0.186510000000     0.0279397  
H184     H      0.558370000000     0.966200000000     0.226840000000     0.0469225  
H185     H      0.559090000000     0.966600000000     0.007700000000     0.0459037  
H186     H      0.559240000000     0.967340000000     0.047850000000     0.0284381  
H187     H      0.423780000000     0.011280000000     0.047840000000     0.0284599  
H188     H      0.424100000000     0.012460000000     0.007700000000     0.0459838  
H189     H      0.424180000000     0.966840000000     0.976310000000     0.0459459  
H190     H      0.424030000000     0.968130000000     0.936180000000     0.0284409  
H191     H      0.559490000000     0.012060000000     0.936340000000     0.0284574  
H192     H      0.559170000000     0.012690000000     0.976480000000     0.0459889  
H193     H      0.558830000000     0.770860000000     0.128920000000     0.045847   
H194     H      0.558920000000     0.851040000000     0.128400000000     0.0281341  
H195     H      0.423490000000     0.850800000000     0.106370000000     0.0284265  
H196     H      0.423880000000     0.770560000000     0.105920000000     0.0459865  
H197     H      0.424020000000     0.708020000000     0.128860000000     0.0458477  
H198     H      0.423940000000     0.627820000000     0.128370000000     0.0281521  
H199     H      0.559460000000     0.628050000000     0.106480000000     0.0284442  
H200     H      0.559070000000     0.708290000000     0.106010000000     0.0459566  
H201     H      0.424030000000     0.208090000000     0.128410000000     0.0458768  
H202     H      0.423940000000     0.127900000000     0.128020000000     0.0281585  
H203     H      0.559450000000     0.127990000000     0.106100000000     0.0284447  
H204     H      0.559060000000     0.208240000000     0.105530000000     0.0459764  
H205     H      0.558860000000     0.270800000000     0.128460000000     0.0458992  
H206     H      0.558950000000     0.350980000000     0.128030000000     0.0281448  
H207     H      0.423540000000     0.350840000000     0.105960000000     0.028415   
H208     H      0.423930000000     0.270600000000     0.105440000000     0.0459963  
H209     H      0.016620000000     0.427120000000     0.257030000000     0.0468846  
H210     H      0.016270000000     0.426240000000     0.297350000000     0.028028   
H211     H      0.967370000000     0.560060000000     0.297900000000     0.028249   
H212     H      0.967310000000     0.560580000000     0.257550000000     0.0469229  
H213     H      0.925000000000     0.518120000000     0.226810000000     0.0469159  
H214     H      0.924730000000     0.517930000000     0.186470000000     0.0279731  
H215     H      0.059110000000     0.470580000000     0.186390000000     0.0279774  
H216     H      0.059020000000     0.470350000000     0.226720000000     0.0468944  
H217     H      0.924040000000     0.516090000000     0.007660000000     0.0459854  
H218     H      0.923840000000     0.515330000000     0.047810000000     0.0284042  
H219     H      0.059300000000     0.471390000000     0.047830000000     0.0284066  
H220     H      0.059020000000     0.470240000000     0.007690000000     0.0459959  
H221     H      0.059020000000     0.515980000000     0.976350000000     0.0459234  
H222     H      0.059240000000     0.514910000000     0.936210000000     0.0284568  
H223     H      0.923780000000     0.470980000000     0.936250000000     0.0284376  
H224     H      0.924030000000     0.470130000000     0.976400000000     0.045921   
H225     H      0.967380000000     0.059490000000     0.257430000000     0.0468835  
H226     H      0.967550000000     0.059320000000     0.297770000000     0.0279207  
H227     H      0.015500000000     0.925150000000     0.297490000000     0.0279566  
H228     H      0.015760000000     0.925690000000     0.257150000000     0.0469177  
H229     H      0.058510000000     0.968690000000     0.226740000000     0.0468732  
H230     H      0.058750000000     0.969340000000     0.186400000000     0.0279336  
H231     H      0.924590000000     0.017300000000     0.186480000000     0.027962   
H232     H      0.924710000000     0.017080000000     0.226810000000     0.0468974  
H233     H      0.924190000000     0.016650000000     0.007680000000     0.046009   
H234     H      0.924000000000     0.015880000000     0.047820000000     0.0284331  
H235     H      0.059450000000     0.971940000000     0.047830000000     0.0283922  
H236     H      0.059180000000     0.970800000000     0.007690000000     0.0459354  
H237     H      0.059130000000     0.016440000000     0.976320000000     0.0459937  
H238     H      0.059310000000     0.015200000000     0.936180000000     0.0284616  
H239     H      0.923850000000     0.971270000000     0.936300000000     0.0284176  
H240     H      0.924140000000     0.970600000000     0.976450000000     0.0459225  
H241     H      0.924120000000     0.774990000000     0.105530000000     0.0459591  
H242     H      0.923740000000     0.855230000000     0.106080000000     0.0283888  
H243     H      0.059220000000     0.855340000000     0.128040000000     0.0281156  
H244     H      0.059130000000     0.775150000000     0.128450000000     0.0458441  
H245     H      0.059260000000     0.712630000000     0.105480000000     0.0459928  
H246     H      0.059650000000     0.632390000000     0.106010000000     0.0283803  
H247     H      0.924210000000     0.632250000000     0.128030000000     0.0281219  
H248     H      0.924300000000     0.712430000000     0.128460000000     0.0458923  
H249     H      0.059140000000     0.275210000000     0.128830000000     0.0458443  
H250     H      0.059220000000     0.355400000000     0.128340000000     0.0281196  
H251     H      0.923730000000     0.355180000000     0.106400000000     0.028428   
H252     H      0.924120000000     0.274940000000     0.105930000000     0.0459666  
H253     H      0.924330000000     0.212380000000     0.128850000000     0.0458544  
H254     H      0.924250000000     0.132200000000     0.128340000000     0.0281621  
H255     H      0.059700000000     0.132420000000     0.106350000000     0.0284621  
H256     H      0.059310000000     0.212670000000     0.105890000000     0.045961   
O1       O      0.028400000000     0.931090000000     0.117360000000    -0.547022   
O2       O      0.028750000000     0.056250000000     0.116960000000    -0.545399   
O3       O      0.028570000000     0.993740000000     0.148480000000    -0.54609    
O4       O      0.028580000000     0.993210000000     0.085840000000    -0.546155   
O5       O      0.954870000000     0.994630000000     0.085830000000    -0.546207   
O6       O      0.954830000000     0.993550000000     0.148470000000    -0.546087   
O7       O      0.955030000000     0.056490000000     0.117490000000    -0.546857   
O8       O      0.954690000000     0.931340000000     0.116820000000    -0.545694   
O9       O      0.954780000000     0.494310000000     0.085850000000    -0.546211   
O10      O      0.954920000000     0.493910000000     0.148490000000    -0.54604    
O11      O      0.955020000000     0.556500000000     0.117340000000    -0.547137   
O12      O      0.954690000000     0.431350000000     0.117000000000    -0.545747   
O13      O      0.028410000000     0.431110000000     0.117490000000    -0.547008   
O14      O      0.028730000000     0.556260000000     0.116760000000    -0.545615   
O15      O      0.028660000000     0.494120000000     0.148430000000    -0.546343   
O16      O      0.028490000000     0.492900000000     0.085810000000    -0.546344   
O17      O      0.454420000000     0.926990000000     0.116980000000    -0.545742   
O18      O      0.454770000000     0.052140000000     0.117360000000    -0.547055   
O19      O      0.454620000000     0.990010000000     0.085850000000    -0.546598   
O20      O      0.454570000000     0.989500000000     0.148480000000    -0.546218   
O21      O      0.528310000000     0.989700000000     0.148490000000    -0.546226   
O22      O      0.528330000000     0.988590000000     0.085860000000    -0.546505   
O23      O      0.528490000000     0.051890000000     0.116830000000    -0.545518   
O24      O      0.528140000000     0.926740000000     0.117520000000    -0.546999   
O25      O      0.528440000000     0.488970000000     0.085880000000    -0.546334   
O26      O      0.528190000000     0.489270000000     0.148520000000    -0.546269   
O27      O      0.528150000000     0.426730000000     0.117350000000    -0.547203   
O28      O      0.528490000000     0.551880000000     0.117060000000    -0.545651   
O29      O      0.454760000000     0.552120000000     0.117520000000    -0.54685    
O30      O      0.454440000000     0.426960000000     0.116730000000    -0.545653   
O31      O      0.454460000000     0.489050000000     0.148440000000    -0.546399   
O32      O      0.454730000000     0.490380000000     0.085810000000    -0.546442   
O33      O      0.028390000000     0.993720000000     0.898220000000    -0.546539   
O34      O      0.028360000000     0.992690000000     0.835590000000    -0.546097   
O35      O      0.028200000000     0.055600000000     0.866590000000    -0.546703   
O36      O      0.028540000000     0.930440000000     0.867220000000    -0.545598   
O37      O      0.954820000000     0.930200000000     0.866710000000    -0.547121   
O38      O      0.954480000000     0.055350000000     0.867130000000    -0.54558    
O39      O      0.954620000000     0.992880000000     0.835600000000    -0.546225   
O40      O      0.954680000000     0.992310000000     0.898240000000    -0.546279   
O41      O      0.028330000000     0.493610000000     0.898210000000    -0.546277   
O42      O      0.028270000000     0.492800000000     0.835570000000    -0.546215   
O43      O      0.028130000000     0.555590000000     0.866620000000    -0.547112   
O44      O      0.028470000000     0.430450000000     0.867160000000    -0.545727   
O45      O      0.954760000000     0.430200000000     0.866640000000    -0.54721    
O46      O      0.954410000000     0.555350000000     0.867180000000    -0.545669   
O47      O      0.954540000000     0.492990000000     0.835600000000    -0.546581   
O48      O      0.954620000000     0.492190000000     0.898230000000    -0.546306   
O49      O      0.528900000000     0.928050000000     0.867140000000    -0.545786   
O50      O      0.528570000000     0.053200000000     0.866740000000    -0.546941   
O51      O      0.528690000000     0.991070000000     0.898260000000    -0.546106   
O52      O      0.528780000000     0.990550000000     0.835620000000    -0.546293   
O53      O      0.455040000000     0.990740000000     0.835600000000    -0.546295   
O54      O      0.454970000000     0.989660000000     0.898230000000    -0.54644    
O55      O      0.454850000000     0.052960000000     0.867250000000    -0.545528   
O56      O      0.455190000000     0.927810000000     0.866580000000    -0.547161   
O57      O      0.454900000000     0.552960000000     0.867160000000    -0.545673   
O58      O      0.455240000000     0.427810000000     0.866660000000    -0.547099   
O59      O      0.455040000000     0.489830000000     0.898230000000    -0.546325   
O60      O      0.455110000000     0.490570000000     0.835590000000    -0.546274   
O61      O      0.528840000000     0.490380000000     0.835620000000    -0.546575   
O62      O      0.528750000000     0.491240000000     0.898250000000    -0.546318   
O63      O      0.528960000000     0.428050000000     0.867210000000    -0.545725   
O64      O      0.528620000000     0.553200000000     0.866650000000    -0.54717    
O65      O      0.991640000000     0.028830000000     0.335650000000    -0.546301   
O66      O      0.990820000000     0.028470000000     0.398280000000    -0.546439   
O67      O      0.053990000000     0.028810000000     0.367230000000    -0.5454     
O68      O      0.928830000000     0.028470000000     0.366690000000    -0.54688    
O69      O      0.929090000000     0.954750000000     0.367120000000    -0.545665   
O70      O      0.054230000000     0.955090000000     0.366600000000    -0.546958   
O71      O      0.992240000000     0.954760000000     0.398190000000    -0.546223   
O72      O      0.991440000000     0.955100000000     0.335540000000    -0.546057   
O73      O      0.928710000000     0.528170000000     0.367190000000    -0.547136   
O74      O      0.053880000000     0.528500000000     0.367270000000    -0.545574   
O75      O      0.991190000000     0.529150000000     0.335840000000    -0.545989   
O76      O      0.991020000000     0.527560000000     0.398450000000    -0.547381   
O77      O      0.991530000000     0.453840000000     0.398000000000    -0.545311   
O78      O      0.991890000000     0.455420000000     0.335350000000    -0.546642   
O79      O      0.054100000000     0.454780000000     0.366670000000    -0.547143   
O80      O      0.928960000000     0.454460000000     0.366510000000    -0.54569    
O81      O      0.491620000000     0.028240000000     0.335550000000    -0.545948   
O82      O      0.490850000000     0.028610000000     0.398200000000    -0.546049   
O83      O      0.553990000000     0.028600000000     0.367130000000    -0.545603   
O84      O      0.428840000000     0.028260000000     0.366610000000    -0.547062   
O85      O      0.429080000000     0.954550000000     0.367260000000    -0.545616   
O86      O      0.554240000000     0.954880000000     0.366710000000    -0.54707    
O87      O      0.492260000000     0.954900000000     0.398300000000    -0.546499   
O88      O      0.491430000000     0.954500000000     0.335670000000    -0.5464     
O89      O      0.491300000000     0.528800000000     0.398030000000    -0.545381   
O90      O      0.490930000000     0.527300000000     0.335380000000    -0.546818   
O91      O      0.428720000000     0.527900000000     0.366700000000    -0.547102   
O92      O      0.553870000000     0.528220000000     0.366540000000    -0.545717   
O93      O      0.554120000000     0.454510000000     0.367190000000    -0.547146   
O94      O      0.428950000000     0.454180000000     0.367280000000    -0.545578   
O95      O      0.491630000000     0.453580000000     0.335840000000    -0.546111   
O96      O      0.491800000000     0.455080000000     0.398460000000    -0.547217   
O97      O      0.992450000000     0.028440000000     0.585800000000    -0.546382   
O98      O      0.991550000000     0.028710000000     0.648430000000    -0.546251   
O99      O      0.054390000000     0.028410000000     0.617410000000    -0.546755   
O100     O      0.929240000000     0.028740000000     0.616830000000    -0.545708   
O101     O      0.929000000000     0.955030000000     0.617430000000    -0.547092   
O102     O      0.054150000000     0.954680000000     0.616950000000    -0.545419   
O103     O      0.991740000000     0.954980000000     0.648510000000    -0.546121   
O104     O      0.991040000000     0.954730000000     0.585870000000    -0.546339   
O105     O      0.991080000000     0.453730000000     0.585940000000    -0.546173   
O106     O      0.991620000000     0.454540000000     0.648570000000    -0.546473   
O107     O      0.928940000000     0.454340000000     0.617460000000    -0.546741   
O108     O      0.054120000000     0.453990000000     0.617060000000    -0.545425   
O109     O      0.054340000000     0.527710000000     0.617360000000    -0.547337   
O110     O      0.929220000000     0.528050000000     0.616690000000    -0.546017   
O111     O      0.991430000000     0.528280000000     0.648340000000    -0.546468   
O112     O      0.992500000000     0.527440000000     0.585710000000    -0.546356   
O113     O      0.491860000000     0.954760000000     0.648450000000    -0.546403   
O114     O      0.490920000000     0.955010000000     0.585820000000    -0.546378   
O115     O      0.554150000000     0.954720000000     0.616840000000    -0.545671   
O116     O      0.429000000000     0.955060000000     0.617440000000    -0.547142   
O117     O      0.429240000000     0.028780000000     0.616970000000    -0.545465   
O118     O      0.554400000000     0.028440000000     0.617440000000    -0.546971   
O119     O      0.492340000000     0.028730000000     0.585880000000    -0.545956   
O120     O      0.491670000000     0.028490000000     0.648520000000    -0.54627    
O121     O      0.428960000000     0.455100000000     0.617410000000    -0.547497   
O122     O      0.554080000000     0.454760000000     0.616720000000    -0.546081   
O123     O      0.491900000000     0.454610000000     0.648380000000    -0.546587   
O124     O      0.490780000000     0.455300000000     0.585750000000    -0.546493   
O125     O      0.492200000000     0.529010000000     0.585940000000    -0.546338   
O126     O      0.491700000000     0.528340000000     0.648570000000    -0.546346   
O127     O      0.554360000000     0.528470000000     0.617450000000    -0.54681    
O128     O      0.429180000000     0.528820000000     0.617060000000    -0.545566   
V1       V      0.031530000000     0.993600000000     0.117160000000     1.38642    
V2       V      0.951900000000     0.993980000000     0.117150000000     1.38614    
V3       V      0.951900000000     0.493990000000     0.117170000000     1.3864     
V4       V      0.031530000000     0.493620000000     0.117120000000     1.3873     
V5       V      0.451640000000     0.989630000000     0.117160000000     1.38686    
V6       V      0.531270000000     0.989250000000     0.117170000000     1.38661    
V7       V      0.531270000000     0.489240000000     0.117200000000     1.38672    
V8       V      0.451640000000     0.489600000000     0.117120000000     1.38651    
V9       V      0.031330000000     0.993080000000     0.866910000000     1.38674    
V10      V      0.951690000000     0.992710000000     0.866920000000     1.38639    
V11      V      0.031260000000     0.493090000000     0.866890000000     1.38699    
V12      V      0.951620000000     0.492710000000     0.866910000000     1.38691    
V13      V      0.531690000000     0.990690000000     0.866940000000     1.38636    
V14      V      0.452060000000     0.990320000000     0.866920000000     1.38675    
V15      V      0.452120000000     0.490320000000     0.866910000000     1.38653    
V16      V      0.531750000000     0.490690000000     0.866930000000     1.38697    
V17      V      0.991350000000     0.031600000000     0.366970000000     1.38678    
V18      V      0.991730000000     0.951970000000     0.366860000000     1.386      
V19      V      0.991230000000     0.531300000000     0.367190000000     1.38741    
V20      V      0.991600000000     0.451670000000     0.366630000000     1.386      
V21      V      0.491350000000     0.031390000000     0.366870000000     1.38629    
V22      V      0.491730000000     0.951750000000     0.366990000000     1.38685    
V23      V      0.491230000000     0.531010000000     0.366660000000     1.38609    
V24      V      0.491600000000     0.451380000000     0.367190000000     1.38718    
V25      V      0.991880000000     0.031530000000     0.617110000000     1.38693    
V26      V      0.991510000000     0.951900000000     0.617190000000     1.38621    
V27      V      0.991470000000     0.451190000000     0.617270000000     1.38598    
V28      V      0.991840000000     0.530820000000     0.617020000000     1.3875     
V29      V      0.491510000000     0.951930000000     0.617130000000     1.38695    
V30      V      0.491890000000     0.031570000000     0.617210000000     1.38646    
V31      V      0.491460000000     0.451980000000     0.617060000000     1.38779    
V32      V      0.491830000000     0.531620000000     0.617260000000     1.3863     


