data_structure

_audit_creation_method RASPA-1.0
_audit_creation_date 2023-5-22
_audit_author_name 'Poobodin Mano'

_cell_length_a    45.892
_cell_length_b    45.9353
_cell_length_c    38.9365
_cell_angle_alpha 89.9983
_cell_angle_beta  90.0003
_cell_angle_gamma 89.9977
_cell_volume      82080.6

_symmetry_cell_setting          triclinic
_symmetry_space_group_name_Hall 'P 1'
_symmetry_space_group_name_H-M  'P 1'
_symmetry_Int_Tables_number     1

_symmetry_equiv_pos_as_xyz 'x,y,z'

loop_
_atom_site_label
_atom_site_type_symbol
_atom_site_fract_x
_atom_site_fract_y
_atom_site_fract_z
_atom_site_charge
C1       C      0.416620000000     0.279710000000     0.057060000000     0.434368   
C2       C      0.495250000000     0.278710000000     0.965970000000     0.434574   
C3       C      0.417180000000     0.279820000000     0.965360000000     0.433789   
C4       C      0.494770000000     0.278540000000     0.057710000000     0.433727   
C5       C      0.185030000000     0.519100000000     0.059000000000     0.435263   
C6       C      0.185980000000     0.595990000000     0.966080000000     0.434439   
C7       C      0.186250000000     0.518050000000     0.967210000000     0.434171   
C8       C      0.184810000000     0.596940000000     0.057830000000     0.434564   
C9       C      0.419240000000     0.827000000000     0.968460000000     0.434417   
C10      C      0.498370000000     0.825540000000     0.058800000000     0.434692   
C11      C      0.420490000000     0.826710000000     0.060270000000     0.435549   
C12      C      0.497080000000     0.825940000000     0.967160000000     0.435663   
C13      C      0.731310000000     0.509210000000     0.058680000000     0.433963   
C14      C      0.731840000000     0.588350000000     0.968370000000     0.433655   
C15      C      0.731980000000     0.510500000000     0.966940000000     0.434941   
C16      C      0.731280000000     0.586990000000     0.060130000000     0.43505    
C17      C      0.231690000000     0.018510000000     0.558800000000     0.433829   
C18      C      0.228760000000     0.094750000000     0.465070000000     0.433636   
C19      C      0.230580000000     0.016680000000     0.467300000000     0.435246   
C20      C      0.229960000000     0.096310000000     0.556800000000     0.435394   
C21      C      0.917870000000     0.779540000000     0.468830000000     0.43548    
C22      C      0.998140000000     0.782340000000     0.557720000000     0.434617   
C23      C      0.920200000000     0.779740000000     0.560340000000     0.434473   
C24      C      0.995930000000     0.782250000000     0.465980000000     0.434618   
C25      C      0.685150000000     0.009870000000     0.559190000000     0.434622   
C26      C      0.684810000000     0.087820000000     0.467410000000     0.434998   
C27      C      0.685340000000     0.009920000000     0.467410000000     0.434435   
C28      C      0.684680000000     0.087920000000     0.559170000000     0.434136   
C29      C      0.995240000000     0.330240000000     0.558250000000     0.433788   
C30      C      0.918290000000     0.325430000000     0.465350000000     0.43371    
C31      C      0.996430000000     0.328200000000     0.466730000000     0.434781   
C32      C      0.917360000000     0.327620000000     0.557040000000     0.435444   
C33      C      0.215840000000     0.262320000000     0.298340000000     0.433961   
C34      C      0.198380000000     0.353150000000     0.227890000000     0.434971   
C35      C      0.163770000000     0.319430000000     0.300730000000     0.434415   
C36      C      0.250560000000     0.296010000000     0.225570000000     0.433784   
C37      C      0.695990000000     0.253290000000     0.298040000000     0.434451   
C38      C      0.717150000000     0.342430000000     0.225940000000     0.434878   
C39      C      0.751190000000     0.307600000000     0.298280000000     0.434248   
C40      C      0.661830000000     0.288190000000     0.225640000000     0.433617   
C41      C      0.750890000000     0.310580000000     0.725100000000     0.434578   
C42      C      0.662100000000     0.290100000000     0.798080000000     0.433683   
C43      C      0.696400000000     0.255700000000     0.725550000000     0.433843   
C44      C      0.716550000000     0.344980000000     0.797690000000     0.434347   
C45      C      0.750260000000     0.785490000000     0.303400000000     0.435144   
C46      C      0.663670000000     0.808640000000     0.227930000000     0.43481    
C47      C      0.697790000000     0.842300000000     0.300930000000     0.434227   
C48      C      0.716140000000     0.751790000000     0.230280000000     0.435167   
C49      C      0.698030000000     0.843430000000     0.727330000000     0.434128   
C50      C      0.719180000000     0.754930000000     0.800570000000     0.434034   
C51      C      0.753650000000     0.789460000000     0.728350000000     0.434839   
C52      C      0.663600000000     0.808790000000     0.799550000000     0.435252   
C53      C      0.164100000000     0.796470000000     0.300250000000     0.434444   
C54      C      0.255050000000     0.814040000000     0.229980000000     0.435121   
C55      C      0.221230000000     0.848650000000     0.302710000000     0.434442   
C56      C      0.197920000000     0.761900000000     0.227620000000     0.434308   
C57      C      0.220270000000     0.851750000000     0.726180000000     0.434365   
C58      C      0.199110000000     0.762140000000     0.797560000000     0.434508   
C59      C      0.165290000000     0.797080000000     0.725020000000     0.435161   
C60      C      0.253960000000     0.816790000000     0.798600000000     0.435419   
C61      C      0.250980000000     0.295600000000     0.797100000000     0.433732   
C62      C      0.161940000000     0.319470000000     0.725770000000     0.43425    
C63      C      0.197850000000     0.351920000000     0.798400000000     0.434778   
C64      C      0.215050000000     0.263130000000     0.724440000000     0.435507   
C65      C      0.048290000000     0.305570000000     0.626720000000    -0.074454   
C66      C      0.063330000000     0.331390000000     0.634390000000     0.0250024  
C67      C      0.055370000000     0.357190000000     0.617360000000    -0.0739091  
C68      C      0.032870000000     0.357080000000     0.593040000000     0.0355397  
C69      C      0.018150000000     0.331090000000     0.585040000000    -0.133708   
C70      C      0.026050000000     0.305400000000     0.602320000000     0.0362953  
C71      C      0.087790000000     0.330870000000     0.659350000000     0.0250156  
C72      C      0.085320000000     0.314950000000     0.690020000000    -0.0745455  
C73      C      0.109140000000     0.312030000000     0.712050000000     0.035978   
C74      C      0.136070000000     0.324890000000     0.703890000000    -0.133848   
C75      C      0.138260000000     0.341700000000     0.673790000000     0.0358456  
C76      C      0.114340000000     0.344710000000     0.651790000000    -0.0739124  
C77      C      0.046270000000     0.351000000000     0.393900000000    -0.0747734  
C78      C      0.066990000000     0.328550000000     0.394330000000     0.0252534  
C79      C      0.064230000000     0.305900000000     0.418250000000    -0.0749182  
C80      C      0.040950000000     0.305560000000     0.441350000000     0.0372442  
C81      C      0.020410000000     0.328250000000     0.441440000000    -0.134599   
C82      C      0.023340000000     0.351060000000     0.417590000000     0.0367915  
C83      C      0.091620000000     0.328550000000     0.369990000000     0.0252495  
C84      C      0.086650000000     0.325850000000     0.334590000000    -0.0747981  
C85      C      0.110130000000     0.323350000000     0.311870000000     0.036935   
C86      C      0.138920000000     0.324220000000     0.324170000000    -0.134616   
C87      C      0.143780000000     0.328020000000     0.359530000000     0.0371363  
C88      C      0.120320000000     0.329810000000     0.382290000000    -0.0749901  
C89      C      0.864610000000     0.295200000000     0.400470000000    -0.0740701  
C90      C      0.849820000000     0.320430000000     0.389840000000     0.0249861  
C91      C      0.858230000000     0.347440000000     0.403590000000    -0.074205   
C92      C      0.880740000000     0.349150000000     0.427710000000     0.0355227  
C93      C      0.895230000000     0.323840000000     0.438770000000    -0.133729   
C94      C      0.887000000000     0.296870000000     0.424710000000     0.0360772  
C95      C      0.825150000000     0.318380000000     0.365260000000     0.0250305  
C96      C      0.826890000000     0.300080000000     0.336400000000    -0.0741889  
C97      C      0.803120000000     0.297080000000     0.314220000000     0.0358369  
C98      C      0.777010000000     0.312170000000     0.320530000000    -0.133512   
C99      C      0.775470000000     0.330880000000     0.349070000000     0.0360596  
C100     C      0.799290000000     0.334000000000     0.371130000000    -0.0740665  
C101     C      0.847020000000     0.343310000000     0.603980000000    -0.0733905  
C102     C      0.848710000000     0.324010000000     0.632100000000     0.0254396  
C103     C      0.874030000000     0.306860000000     0.635680000000    -0.0738437  
C104     C      0.896270000000     0.308070000000     0.611230000000     0.0384324  
C105     C      0.894290000000     0.327190000000     0.583300000000    -0.135281   
C106     C      0.869770000000     0.345180000000     0.580160000000     0.0379102  
C107     C      0.823970000000     0.321070000000     0.656930000000     0.0252032  
C108     C      0.805100000000     0.344620000000     0.663790000000    -0.0733276  
C109     C      0.781270000000     0.341280000000     0.685880000000     0.0372851  
C110     C      0.776300000000     0.314640000000     0.702460000000    -0.134842   
C111     C      0.795330000000     0.291330000000     0.696410000000     0.0377412  
C112     C      0.818560000000     0.294340000000     0.673550000000    -0.0736343  
C113     C      0.711570000000     0.142270000000     0.625140000000    -0.0742431  
C114     C      0.685800000000     0.156900000000     0.634150000000     0.0250835  
C115     C      0.659440000000     0.148290000000     0.618790000000    -0.0740571  
C116     C      0.658930000000     0.125600000000     0.594820000000     0.0357643  
C117     C      0.684810000000     0.111230000000     0.585490000000    -0.133613   
C118     C      0.711100000000     0.119760000000     0.601060000000     0.0363259  
C119     C      0.686740000000     0.181530000000     0.658820000000     0.0249793  
C120     C      0.703800000000     0.179690000000     0.688710000000    -0.0743346  
C121     C      0.706310000000     0.203510000000     0.710800000000     0.0357805  
C122     C      0.691920000000     0.229810000000     0.703440000000    -0.133547   
C123     C      0.674250000000     0.231420000000     0.673980000000     0.0358494  
C124     C      0.671620000000     0.207500000000     0.651960000000    -0.0738676  
C125     C      0.711620000000     0.141560000000     0.400720000000    -0.0743685  
C126     C      0.685730000000     0.155680000000     0.391080000000     0.0252329  
C127     C      0.659370000000     0.147000000000     0.406340000000    -0.0742566  
C128     C      0.658950000000     0.124730000000     0.430840000000     0.0360966  
C129     C      0.684940000000     0.110850000000     0.440780000000    -0.134167   
C130     C      0.711250000000     0.119460000000     0.425330000000     0.0366119  
C131     C      0.686520000000     0.179900000000     0.365880000000     0.0250668  
C132     C      0.671020000000     0.205760000000     0.372040000000    -0.0740186  
C133     C      0.673520000000     0.229380000000     0.349590000000     0.0361711  
C134     C      0.691460000000     0.227580000000     0.320380000000    -0.133889   
C135     C      0.706200000000     0.201350000000     0.313650000000     0.0360893  
C136     C      0.703810000000     0.177820000000     0.336200000000    -0.0743048  
C137     C      0.660690000000     0.950690000000     0.405940000000    -0.0742057  
C138     C      0.687310000000     0.941550000000     0.391690000000     0.0251458  
C139     C      0.713110000000     0.955520000000     0.401970000000    -0.0743912  
C140     C      0.712390000000     0.977840000000     0.426300000000     0.036348   
C141     C      0.685820000000     0.986820000000     0.440860000000    -0.133896   
C142     C      0.659940000000     0.973150000000     0.430200000000     0.0359152  
C143     C      0.688440000000     0.916900000000     0.367050000000     0.0249083  
C144     C      0.672170000000     0.891490000000     0.373080000000    -0.0740807  
C145     C      0.674740000000     0.867510000000     0.351210000000     0.0359377  
C146     C      0.693570000000     0.868420000000     0.322720000000    -0.1337     
C147     C      0.709220000000     0.894140000000     0.316150000000     0.0358375  
C148     C      0.706720000000     0.918080000000     0.338110000000    -0.0741432  
C149     C      0.660400000000     0.949590000000     0.619220000000    -0.0741324  
C150     C      0.686830000000     0.941230000000     0.634570000000     0.0251024  
C151     C      0.712510000000     0.955930000000     0.625360000000    -0.0743076  
C152     C      0.711880000000     0.978300000000     0.601100000000     0.0362812  
C153     C      0.685500000000     0.986620000000     0.585570000000    -0.133786   
C154     C      0.659720000000     0.972150000000     0.595070000000     0.035857   
C155     C      0.687920000000     0.916840000000     0.659560000000     0.0249688  
C156     C      0.704980000000     0.919080000000     0.689400000000    -0.0744073  
C157     C      0.707620000000     0.895500000000     0.711830000000     0.0359316  
C158     C      0.693350000000     0.869050000000     0.704870000000    -0.133773   
C159     C      0.675650000000     0.867060000000     0.675460000000     0.0358209  
C160     C      0.672910000000     0.890730000000     0.653100000000    -0.0738737  
C161     C      0.114450000000     0.770790000000     0.371920000000    -0.0741904  
C162     C      0.089010000000     0.786980000000     0.365680000000     0.0249975  
C163     C      0.088010000000     0.805390000000     0.336870000000    -0.0741902  
C164     C      0.112140000000     0.808000000000     0.315150000000     0.0358474  
C165     C      0.137840000000     0.792340000000     0.321870000000    -0.13382    
C166     C      0.138600000000     0.773470000000     0.350310000000     0.0360097  
C167     C      0.064090000000     0.785480000000     0.389970000000     0.0249887  
C168     C      0.055190000000     0.758710000000     0.403960000000    -0.0741962  
C169     C      0.032730000000     0.757570000000     0.428180000000     0.035743   
C170     C      0.018750000000     0.783210000000     0.439070000000    -0.133887   
C171     C      0.027350000000     0.809920000000     0.424620000000     0.0361955  
C172     C      0.049720000000     0.811030000000     0.400330000000    -0.0741897  
C173     C      0.058920000000     0.758910000000     0.617770000000    -0.0742779  
C174     C      0.067390000000     0.785610000000     0.632310000000     0.0251265  
C175     C      0.052690000000     0.811100000000     0.622410000000    -0.0743605  
C176     C      0.030190000000     0.809990000000     0.598310000000     0.0363646  
C177     C      0.021740000000     0.783320000000     0.583640000000    -0.134061   
C178     C      0.036260000000     0.757760000000     0.593780000000     0.0361143  
C179     C      0.091860000000     0.787110000000     0.657170000000     0.025102   
C180     C      0.089800000000     0.804730000000     0.686570000000    -0.0744273  
C181     C      0.113390000000     0.807410000000     0.709030000000     0.0361959  
C182     C      0.139660000000     0.792640000000     0.702490000000    -0.134226   
C183     C      0.141490000000     0.774520000000     0.673450000000     0.0363035  
C184     C      0.117830000000     0.771730000000     0.651090000000    -0.0741518  
C185     C      0.802330000000     0.764690000000     0.655250000000    -0.0741687  
C186     C      0.828110000000     0.780170000000     0.661970000000     0.0251445  
C187     C      0.829750000000     0.797410000000     0.691720000000    -0.0744456  
C188     C      0.805850000000     0.799790000000     0.713760000000     0.0361622  
C189     C      0.779700000000     0.785080000000     0.706470000000    -0.13405    
C190     C      0.778360000000     0.767170000000     0.677210000000     0.0362949  
C191     C      0.852640000000     0.779570000000     0.637120000000     0.0250664  
C192     C      0.861470000000     0.753390000000     0.621580000000    -0.0740738  
C193     C      0.883780000000     0.753270000000     0.597070000000     0.0358333  
C194     C      0.897520000000     0.779380000000     0.587420000000    -0.134002   
C195     C      0.888870000000     0.805470000000     0.603290000000     0.0363977  
C196     C      0.866750000000     0.805550000000     0.627890000000    -0.0744562  
C197     C      0.849570000000     0.800450000000     0.420570000000    -0.0750865  
C198     C      0.846910000000     0.777440000000     0.397120000000     0.0253566  
C199     C      0.867810000000     0.755160000000     0.397000000000    -0.0750036  
C200     C      0.890860000000     0.755650000000     0.420530000000     0.0371449  
C201     C      0.893690000000     0.778840000000     0.443860000000    -0.135261   
C202     C      0.872940000000     0.801330000000     0.443490000000     0.0375926  
C203     C      0.822320000000     0.776990000000     0.372780000000     0.0253124  
C204     C      0.793630000000     0.775550000000     0.385050000000    -0.0750643  
C205     C      0.770180000000     0.777080000000     0.362260000000     0.0373202  
C206     C      0.775070000000     0.780800000000     0.326890000000    -0.135054   
C207     C      0.803860000000     0.781800000000     0.314610000000     0.0372362  
C208     C      0.827320000000     0.779570000000     0.337380000000    -0.0749463  
C209     C      0.205750000000     0.186790000000     0.335960000000    -0.0741465  
C210     C      0.224410000000     0.187670000000     0.364570000000     0.0249175  
C211     C      0.241160000000     0.212820000000     0.370320000000    -0.0741416  
C212     C      0.238790000000     0.236800000000     0.348430000000     0.0359205  
C213     C      0.219700000000     0.236170000000     0.320190000000    -0.133613   
C214     C      0.203470000000     0.210740000000     0.313960000000     0.0357275  
C215     C      0.225710000000     0.162900000000     0.389060000000     0.0249266  
C216     C      0.200010000000     0.149060000000     0.399950000000    -0.0741257  
C217     C      0.201030000000     0.126730000000     0.424310000000     0.0359362  
C218     C      0.227790000000     0.117650000000     0.438260000000    -0.133651   
C219     C      0.253550000000     0.131140000000     0.426880000000     0.0355244  
C220     C      0.252510000000     0.153550000000     0.402620000000    -0.0742547  
C221     C      0.197410000000     0.195990000000     0.672650000000    -0.0737527  
C222     C      0.224150000000     0.189970000000     0.656280000000     0.0253128  
C223     C      0.248120000000     0.208220000000     0.663410000000    -0.0735362  
C224     C      0.245200000000     0.232080000000     0.685480000000     0.0377269  
C225     C      0.218550000000     0.237680000000     0.701800000000    -0.135257   
C226     C      0.194800000000     0.219250000000     0.695520000000     0.0379759  
C227     C      0.226710000000     0.165210000000     0.631460000000     0.0254329  
C228     C      0.208990000000     0.140290000000     0.634830000000    -0.0738793  
C229     C      0.210040000000     0.117990000000     0.610490000000     0.038384   
C230     C      0.229550000000     0.119510000000     0.582860000000    -0.135378   
C231     C      0.248030000000     0.143660000000     0.579900000000     0.0379954  
C232     C      0.246330000000     0.166480000000     0.603600000000    -0.0735497  
C233     C      0.214020000000     0.928090000000     0.690020000000    -0.0744163  
C234     C      0.230930000000     0.926130000000     0.660010000000     0.0250451  
C235     C      0.245740000000     0.900020000000     0.652990000000    -0.0740025  
C236     C      0.242850000000     0.876050000000     0.674890000000     0.0359934  
C237     C      0.225190000000     0.877730000000     0.704350000000    -0.133727   
C238     C      0.211220000000     0.904200000000     0.711960000000     0.036032   
C239     C      0.231710000000     0.950650000000     0.635180000000     0.0250011  
C240     C      0.205860000000     0.965290000000     0.626520000000    -0.0744738  
C241     C      0.206030000000     0.987480000000     0.602070000000     0.0361973  
C242     C      0.232080000000     0.995720000000     0.585730000000    -0.133716   
C243     C      0.258080000000     0.981430000000     0.594790000000     0.0355968  
C244     C      0.257870000000     0.959020000000     0.619160000000    -0.0739558  
C245     C      0.228000000000     0.925800000000     0.336060000000    -0.074907   
C246     C      0.230740000000     0.920970000000     0.371480000000     0.0252763  
C247     C      0.231900000000     0.892360000000     0.383980000000    -0.0750364  
C248     C      0.229970000000     0.868820000000     0.361390000000     0.037184   
C249     C      0.226130000000     0.873540000000     0.326010000000    -0.13472    
C250     C      0.225370000000     0.902240000000     0.313510000000     0.0370518  
C251     C      0.230830000000     0.945690000000     0.395630000000     0.025335   
C252     C      0.253580000000     0.966080000000     0.395360000000    -0.0749245  
C253     C      0.253680000000     0.989150000000     0.418830000000     0.0371019  
C254     C      0.230610000000     0.992540000000     0.442270000000    -0.134986   
C255     C      0.207640000000     0.972320000000     0.442020000000     0.0375229  
C256     C      0.207930000000     0.948910000000     0.419160000000    -0.0750763  
C257     C      0.755780000000     0.449300000000     0.119340000000    -0.0742584  
C258     C      0.729180000000     0.440630000000     0.134040000000     0.0251357  
C259     C      0.703480000000     0.454960000000     0.124140000000    -0.0744556  
C260     C      0.704270000000     0.477270000000     0.099840000000     0.0364827  
C261     C      0.730810000000     0.485910000000     0.084960000000    -0.134169   
C262     C      0.756610000000     0.471820000000     0.095150000000     0.0358044  
C263     C      0.727910000000     0.416220000000     0.158960000000     0.0251239  
C264     C      0.743250000000     0.390270000000     0.152740000000    -0.0740771  
C265     C      0.740280000000     0.366500000000     0.174890000000     0.036219   
C266     C      0.722010000000     0.368230000000     0.203830000000    -0.13406    
C267     C      0.707420000000     0.394520000000     0.210600000000     0.0362899  
C268     C      0.710280000000     0.418210000000     0.188370000000    -0.0745097  
C269     C      0.748100000000     0.655720000000     0.109570000000    -0.0733737  
C270     C      0.728090000000     0.654140000000     0.137020000000     0.025364   
C271     C      0.709940000000     0.629440000000     0.139260000000    -0.0736645  
C272     C      0.710970000000     0.607680000000     0.114220000000     0.0381528  
C273     C      0.730870000000     0.609530000000     0.087010000000    -0.135079   
C274     C      0.749760000000     0.633440000000     0.085180000000     0.0378292  
C275     C      0.725540000000     0.678450000000     0.162460000000     0.0253295  
C276     C      0.749640000000     0.696290000000     0.170390000000    -0.0735376  
C277     C      0.746670000000     0.720060000000     0.192560000000     0.0378605  
C278     C      0.719820000000     0.725980000000     0.208250000000    -0.135143   
C279     C      0.695980000000     0.707810000000     0.201440000000     0.0379306  
C280     C      0.698650000000     0.684630000000     0.178440000000    -0.0736136  
C281     C      0.712500000000     0.679210000000     0.838290000000    -0.0744328  
C282     C      0.729460000000     0.681500000000     0.868210000000     0.0250651  
C283     C      0.744330000000     0.707650000000     0.874790000000    -0.0739525  
C284     C      0.741520000000     0.731340000000     0.852470000000     0.0360649  
C285     C      0.723920000000     0.729300000000     0.822990000000    -0.1338     
C286     C      0.709820000000     0.702790000000     0.815890000000     0.0359465  
C287     C      0.730490000000     0.657140000000     0.893220000000     0.0251614  
C288     C      0.704750000000     0.642540000000     0.902400000000    -0.0743994  
C289     C      0.705290000000     0.620170000000     0.926630000000     0.0364116  
C290     C      0.731620000000     0.611730000000     0.942160000000    -0.13383    
C291     C      0.757460000000     0.626120000000     0.932730000000     0.0357178  
C292     C      0.756870000000     0.648700000000     0.908610000000    -0.0741739  
C293     C      0.711740000000     0.467810000000     0.887620000000    -0.0736998  
C294     C      0.729290000000     0.442740000000     0.890790000000     0.0254033  
C295     C      0.748740000000     0.441080000000     0.918790000000    -0.0733405  
C296     C      0.750330000000     0.463600000000     0.942910000000     0.0377869  
C297     C      0.731920000000     0.487830000000     0.940210000000    -0.134944   
C298     C      0.712680000000     0.489800000000     0.912380000000     0.0382506  
C299     C      0.726570000000     0.418140000000     0.865750000000     0.0251965  
C300     C      0.699820000000     0.412490000000     0.849240000000    -0.073527   
C301     C      0.696970000000     0.389260000000     0.826360000000     0.0376279  
C302     C      0.720470000000     0.370500000000     0.820170000000    -0.134591   
C303     C      0.747160000000     0.375770000000     0.836570000000     0.0371938  
C304     C      0.750330000000     0.399590000000     0.858660000000    -0.0732707  
C305     C      0.552010000000     0.797070000000     0.124550000000    -0.0745972  
C306     C      0.567120000000     0.822440000000     0.133930000000     0.025232   
C307     C      0.559290000000     0.849040000000     0.118650000000    -0.0743523  
C308     C      0.536730000000     0.850200000000     0.094510000000     0.0360583  
C309     C      0.521770000000     0.824730000000     0.084950000000    -0.134526   
C310     C      0.529670000000     0.798180000000     0.100300000000     0.036774   
C311     C      0.591250000000     0.820810000000     0.159190000000     0.0251634  
C312     C      0.588190000000     0.803980000000     0.189090000000    -0.0747163  
C313     C      0.611480000000     0.800680000000     0.211790000000     0.0363671  
C314     C      0.638460000000     0.814030000000     0.205050000000    -0.134274   
C315     C      0.641290000000     0.831520000000     0.175580000000     0.0361969  
C316     C      0.617880000000     0.834950000000     0.152930000000    -0.0740501  
C317     C      0.377690000000     0.806320000000     0.139510000000    -0.0736515  
C318     C      0.353150000000     0.824690000000     0.137060000000     0.0253325  
C319     C      0.351820000000     0.844550000000     0.109450000000    -0.0734286  
C320     C      0.374180000000     0.845840000000     0.085100000000     0.0378752  
C321     C      0.397910000000     0.826720000000     0.087130000000    -0.135194   
C322     C      0.399520000000     0.806980000000     0.114510000000     0.0381839  
C323     C      0.328730000000     0.822480000000     0.162420000000     0.0254192  
C324     C      0.322270000000     0.795760000000     0.178540000000    -0.0736603  
C325     C      0.298970000000     0.793400000000     0.201460000000     0.0379914  
C326     C      0.280970000000     0.817400000000     0.208030000000    -0.135175   
C327     C      0.287170000000     0.844100000000     0.192190000000     0.0378638  
C328     C      0.311070000000     0.846760000000     0.170100000000    -0.0736352  
C329     C      0.365050000000     0.800590000000     0.902090000000    -0.074551   
C330     C      0.351210000000     0.826570000000     0.892300000000     0.0251696  
C331     C      0.360120000000     0.852870000000     0.907480000000    -0.0742297  
C332     C      0.382420000000     0.853140000000     0.931980000000     0.0359483  
C333     C      0.396060000000     0.827070000000     0.942010000000    -0.134323   
C334     C      0.387150000000     0.800820000000     0.926700000000     0.0366294  
C335     C      0.327090000000     0.825910000000     0.866950000000     0.0252366  
C336     C      0.329240000000     0.808600000000     0.837320000000    -0.0745139  
C337     C      0.305780000000     0.806280000000     0.814640000000     0.0364103  
C338     C      0.279570000000     0.821130000000     0.821180000000    -0.134318   
C339     C      0.277710000000     0.839090000000     0.850360000000     0.0364299  
C340     C      0.301260000000     0.841520000000     0.872950000000    -0.0741909  
C341     C      0.540030000000     0.804720000000     0.888370000000    -0.0737403  
C342     C      0.565140000000     0.822230000000     0.891430000000     0.0254733  
C343     C      0.566780000000     0.841890000000     0.919200000000    -0.0734638  
C344     C      0.544180000000     0.843790000000     0.943170000000     0.0380537  
C345     C      0.519860000000     0.825470000000     0.940570000000    -0.135387   
C346     C      0.517920000000     0.805970000000     0.913000000000     0.0383961  
C347     C      0.589810000000     0.819290000000     0.866530000000     0.0253815  
C348     C      0.595590000000     0.792410000000     0.850410000000    -0.0736743  
C349     C      0.619010000000     0.789380000000     0.827800000000     0.0379871  
C350     C      0.637810000000     0.812830000000     0.821550000000    -0.135175   
C351     C      0.632350000000     0.839650000000     0.837470000000     0.0378701  
C352     C      0.608350000000     0.843000000000     0.859260000000    -0.073525   
C353     C      0.202770000000     0.686330000000     0.189230000000    -0.0746354  
C354     C      0.186650000000     0.689440000000     0.158790000000     0.0250872  
C355     C      0.172740000000     0.716090000000     0.152090000000    -0.0739213  
C356     C      0.175790000000     0.739510000000     0.174800000000     0.0358972  
C357     C      0.192680000000     0.736650000000     0.204760000000    -0.133937   
C358     C      0.205700000000     0.709620000000     0.211980000000     0.0361779  
C359     C      0.185690000000     0.665380000000     0.133400000000     0.0251937  
C360     C      0.211350000000     0.650340000000     0.124910000000    -0.0745585  
C361     C      0.210940000000     0.628100000000     0.100520000000     0.0366661  
C362     C      0.184810000000     0.620220000000     0.084130000000    -0.134278   
C363     C      0.159040000000     0.635080000000     0.092810000000     0.0360197  
C364     C      0.159510000000     0.657570000000     0.117080000000    -0.0742146  
C365     C      0.205400000000     0.476140000000     0.138130000000    -0.0737968  
C366     C      0.187240000000     0.451480000000     0.135400000000     0.0254151  
C367     C      0.167460000000     0.450140000000     0.107690000000    -0.0735038  
C368     C      0.166080000000     0.472600000000     0.083490000000     0.0378211  
C369     C      0.185020000000     0.496450000000     0.085770000000    -0.135177   
C370     C      0.204640000000     0.498070000000     0.113280000000     0.0382492  
C371     C      0.189580000000     0.426960000000     0.160600000000     0.0252218  
C372     C      0.216330000000     0.420650000000     0.176830000000    -0.0735403  
C373     C      0.218810000000     0.397300000000     0.199630000000     0.0377646  
C374     C      0.194910000000     0.379080000000     0.205990000000    -0.13498    
C375     C      0.168200000000     0.385120000000     0.190030000000     0.0377069  
C376     C      0.165410000000     0.409050000000     0.168050000000    -0.0734952  
C377     C      0.173350000000     0.399680000000     0.872400000000    -0.074087   
C378     C      0.189470000000     0.425220000000     0.866640000000     0.0251227  
C379     C      0.207380000000     0.426930000000     0.837430000000    -0.0742917  
C380     C      0.209570000000     0.403400000000     0.814840000000     0.0361159  
C381     C      0.194020000000     0.377560000000     0.821060000000    -0.133842   
C382     C      0.175650000000     0.376080000000     0.849920000000     0.0362909  
C383     C      0.188400000000     0.449580000000     0.891650000000     0.0251335  
C384     C      0.161780000000     0.458630000000     0.905950000000    -0.0742245  
C385     C      0.161000000000     0.481060000000     0.930220000000     0.035917   
C386     C      0.186860000000     0.494770000000     0.940890000000    -0.133956   
C387     C      0.213450000000     0.485790000000     0.926410000000     0.0363594  
C388     C      0.214200000000     0.463510000000     0.902020000000    -0.0742813  
C389     C      0.161420000000     0.655270000000     0.904600000000    -0.0740241  
C390     C      0.187970000000     0.663920000000     0.889770000000     0.0250565  
C391     C      0.213700000000     0.649630000000     0.899710000000    -0.0741426  
C392     C      0.212980000000     0.627460000000     0.924230000000     0.0362633  
C393     C      0.186480000000     0.618930000000     0.939320000000    -0.133658   
C394     C      0.160660000000     0.632940000000     0.929010000000     0.0358126  
C395     C      0.189120000000     0.688330000000     0.864780000000     0.0251061  
C396     C      0.206830000000     0.686480000000     0.835420000000    -0.0743132  
C397     C      0.209430000000     0.710150000000     0.813090000000     0.0359769  
C398     C      0.194490000000     0.736290000000     0.819700000000    -0.133679   
C399     C      0.176190000000     0.737870000000     0.848620000000     0.0360427  
C400     C      0.173480000000     0.714120000000     0.870860000000    -0.0739498  
C401     C      0.363100000000     0.307810000000     0.123260000000    -0.0743971  
C402     C      0.347590000000     0.282500000000     0.131980000000     0.0251269  
C403     C      0.355180000000     0.256050000000     0.116180000000    -0.0740834  
C404     C      0.377860000000     0.254970000000     0.092170000000     0.0357844  
C405     C      0.393190000000     0.280390000000     0.083230000000    -0.133807   
C406     C      0.385560000000     0.306790000000     0.099130000000     0.0364872  
C407     C      0.323290000000     0.284050000000     0.157090000000     0.0249993  
C408     C      0.326310000000     0.300500000000     0.187290000000    -0.074515   
C409     C      0.302920000000     0.303720000000     0.209880000000     0.0359323  
C410     C      0.275860000000     0.290660000000     0.202760000000    -0.133593   
C411     C      0.273050000000     0.273540000000     0.172990000000     0.0356604  
C412     C      0.296570000000     0.270200000000     0.150430000000    -0.073829   
C413     C      0.613680000000     0.263970000000     0.151700000000    -0.0738644  
C414     C      0.587900000000     0.279550000000     0.158200000000     0.0249953  
C415     C      0.586140000000     0.296750000000     0.187970000000    -0.0742633  
C416     C      0.609860000000     0.298910000000     0.210310000000     0.0358095  
C417     C      0.635980000000     0.284040000000     0.203310000000    -0.133221   
C418     C      0.637490000000     0.266250000000     0.173960000000     0.035732   
C419     C      0.563390000000     0.278910000000     0.133280000000     0.0250309  
C420     C      0.549180000000     0.304850000000     0.124030000000    -0.0741959  
C421     C      0.526790000000     0.304630000000     0.099750000000     0.0361324  
C422     C      0.517960000000     0.278440000000     0.084220000000    -0.133378   
C423     C      0.531910000000     0.252410000000     0.093790000000     0.0355764  
C424     C      0.554480000000     0.252670000000     0.117970000000    -0.0739536  
C425     C      0.586290000000     0.297380000000     0.835690000000    -0.0743417  
C426     C      0.588420000000     0.280440000000     0.865640000000     0.0249854  
C427     C      0.614490000000     0.265410000000     0.872270000000    -0.0738584  
C428     C      0.638240000000     0.268010000000     0.849970000000     0.0358532  
C429     C      0.636360000000     0.285580000000     0.820460000000    -0.133455   
C430     C      0.609940000000     0.299860000000     0.813320000000     0.0357705  
C431     C      0.563980000000     0.279580000000     0.890610000000     0.0251587  
C432     C      0.549460000000     0.305380000000     0.899700000000    -0.0743046  
C433     C      0.527080000000     0.304990000000     0.923970000000     0.0365015  
C434     C      0.518550000000     0.278760000000     0.939630000000    -0.133871   
C435     C      0.532840000000     0.252860000000     0.930260000000     0.0358367  
C436     C      0.555430000000     0.253300000000     0.906100000000    -0.0740483  
C437     C      0.363800000000     0.307940000000     0.898940000000    -0.0741652  
C438     C      0.348940000000     0.282450000000     0.889390000000     0.0250432  
C439     C      0.357060000000     0.255890000000     0.904570000000    -0.0739912  
C440     C      0.379490000000     0.254900000000     0.928900000000     0.0356772  
C441     C      0.394090000000     0.280490000000     0.938750000000    -0.13342    
C442     C      0.386050000000     0.306990000000     0.923370000000     0.0362131  
C443     C      0.324580000000     0.283910000000     0.864350000000     0.0250035  
C444     C      0.298340000000     0.269030000000     0.870600000000    -0.0738699  
C445     C      0.274640000000     0.272230000000     0.848330000000     0.0358248  
C446     C      0.276720000000     0.290270000000     0.819240000000    -0.133492   
C447     C      0.303300000000     0.304360000000     0.812430000000     0.0358114  
C448     C      0.326920000000     0.301260000000     0.834760000000    -0.0743205  
H1       H      0.066480000000     0.377450000000     0.622910000000     0.0463909  
H2       H      0.027330000000     0.377230000000     0.580160000000     0.0289437  
H3       H      0.015190000000     0.284980000000     0.596870000000     0.028761   
H4       H      0.054170000000     0.285250000000     0.639030000000     0.0461785  
H5       H      0.065010000000     0.304390000000     0.696790000000     0.0460242  
H6       H      0.106560000000     0.299090000000     0.735110000000     0.0289402  
H7       H      0.158640000000     0.351980000000     0.666760000000     0.0292832  
H8       H      0.116960000000     0.356960000000     0.628220000000     0.0465255  
H9       H      0.079980000000     0.288330000000     0.418870000000     0.0479389  
H10      H      0.039350000000     0.287810000000     0.459560000000     0.0276813  
H11      H      0.007750000000     0.368760000000     0.417050000000     0.0272812  
H12      H      0.048100000000     0.368670000000     0.375590000000     0.047447   
H13      H      0.064610000000     0.324730000000     0.324680000000     0.0473755  
H14      H      0.105770000000     0.320500000000     0.284730000000     0.026918   
H15      H      0.165720000000     0.328560000000     0.369780000000     0.0278099  
H16      H      0.124550000000     0.331900000000     0.409550000000     0.0478492  
H17      H      0.847440000000     0.367300000000     0.395640000000     0.0461462  
H18      H      0.886540000000     0.370290000000     0.437960000000     0.0288849  
H19      H      0.897670000000     0.276930000000     0.432610000000     0.0292985  
H20      H      0.858420000000     0.274020000000     0.390650000000     0.0463651  
H21      H      0.846650000000     0.288020000000     0.330980000000     0.0460289  
H22      H      0.805110000000     0.282520000000     0.292460000000     0.0288556  
H23      H      0.755710000000     0.342860000000     0.354700000000     0.0292458  
H24      H      0.797160000000     0.348040000000     0.393320000000     0.0464297  
H25      H      0.876850000000     0.292400000000     0.657350000000     0.0456613  
H26      H      0.915210000000     0.294240000000     0.614370000000     0.0245918  
H27      H      0.867720000000     0.359950000000     0.558600000000     0.0249836  
H28      H      0.827840000000     0.356510000000     0.599670000000     0.0459665  
H29      H      0.808690000000     0.365760000000     0.652300000000     0.0458303  
H30      H      0.766930000000     0.359640000000     0.690350000000     0.025799   
H31      H      0.791670000000     0.270410000000     0.708520000000     0.025979   
H32      H      0.831810000000     0.275350000000     0.668450000000     0.0457538  
H33      H      0.639200000000     0.159030000000     0.625430000000     0.0462728  
H34      H      0.638310000000     0.119580000000     0.583320000000     0.0288481  
H35      H      0.731460000000     0.109190000000     0.594510000000     0.0289727  
H36      H      0.732280000000     0.148630000000     0.636180000000     0.0462547  
H37      H      0.715400000000     0.159830000000     0.694910000000     0.0460005  
H38      H      0.720020000000     0.201430000000     0.733310000000     0.0288769  
H39      H      0.662820000000     0.251310000000     0.667550000000     0.0293195  
H40      H      0.658490000000     0.209660000000     0.628990000000     0.0464986  
H41      H      0.639040000000     0.157350000000     0.399220000000     0.0462716  
H42      H      0.638300000000     0.118620000000     0.442210000000     0.0288433  
H43      H      0.731680000000     0.109240000000     0.432330000000     0.0289714  
H44      H      0.732330000000     0.148010000000     0.389750000000     0.0464363  
H45      H      0.657700000000     0.208100000000     0.394840000000     0.0464557  
H46      H      0.661820000000     0.249220000000     0.355520000000     0.0291638  
H47      H      0.720130000000     0.199140000000     0.291350000000     0.0289637  
H48      H      0.715710000000     0.158020000000     0.330530000000     0.046108   
H49      H      0.734000000000     0.948740000000     0.391810000000     0.0463144  
H50      H      0.732750000000     0.987880000000     0.433870000000     0.0290654  
H51      H      0.639090000000     0.979550000000     0.440830000000     0.0289533  
H52      H      0.640420000000     0.940510000000     0.398290000000     0.0462631  
H53      H      0.658100000000     0.889800000000     0.395330000000     0.0462534  
H54      H      0.662320000000     0.848070000000     0.357040000000     0.0291373  
H55      H      0.723840000000     0.895650000000     0.294390000000     0.0291643  
H56      H      0.719260000000     0.937490000000     0.332540000000     0.0461261  
H57      H      0.733270000000     0.949740000000     0.636410000000     0.0462606  
H58      H      0.732150000000     0.988960000000     0.594430000000     0.0289191  
H59      H      0.639040000000     0.978000000000     0.583600000000     0.0289305  
H60      H      0.640220000000     0.938800000000     0.626010000000     0.0462925  
H61      H      0.716480000000     0.939050000000     0.695310000000     0.0460785  
H62      H      0.721330000000     0.897880000000     0.734290000000     0.0290219  
H63      H      0.664320000000     0.847050000000     0.669340000000     0.0292423  
H64      H      0.659760000000     0.888280000000     0.630170000000     0.046376   
H65      H      0.068590000000     0.817890000000     0.331160000000     0.0461002  
H66      H      0.110760000000     0.822670000000     0.293440000000     0.0291045  
H67      H      0.158020000000     0.761060000000     0.356260000000     0.0291383  
H68      H      0.116030000000     0.756660000000     0.394110000000     0.0462836  
H69      H      0.065630000000     0.738600000000     0.396210000000     0.0461037  
H70      H      0.026610000000     0.736610000000     0.438680000000     0.0289817  
H71      H      0.017070000000     0.830100000000     0.432370000000     0.0292362  
H72      H      0.056290000000     0.832040000000     0.390340000000     0.0462826  
H73      H      0.058960000000     0.832050000000     0.632820000000     0.0462559  
H74      H      0.019490000000     0.830100000000     0.591130000000     0.0289003  
H75      H      0.030310000000     0.736850000000     0.583020000000     0.0289833  
H76      H      0.069690000000     0.738880000000     0.625110000000     0.0463459  
H77      H      0.069940000000     0.816550000000     0.692180000000     0.0461155  
H78      H      0.111160000000     0.821490000000     0.731180000000     0.0288722  
H79      H      0.161370000000     0.762800000000     0.667650000000     0.0290636  
H80      H      0.120160000000     0.758170000000     0.628490000000     0.0463713  
H81      H      0.849470000000     0.809300000000     0.697820000000     0.0460672  
H82      H      0.807720000000     0.813680000000     0.736140000000     0.028889   
H83      H      0.758590000000     0.755470000000     0.670840000000     0.0291959  
H84      H      0.800310000000     0.751420000000     0.632380000000     0.0465021  
H85      H      0.851130000000     0.732990000000     0.628380000000     0.0463458  
H86      H      0.889920000000     0.732790000000     0.585360000000     0.0290595  
H87      H      0.898980000000     0.825990000000     0.596540000000     0.0288402  
H88      H      0.860200000000     0.826130000000     0.639060000000     0.0462357  
H89      H      0.866070000000     0.737240000000     0.379030000000     0.0475022  
H90      H      0.906620000000     0.738100000000     0.420210000000     0.0271475  
H91      H      0.874490000000     0.819370000000     0.461320000000     0.0274701  
H92      H      0.833670000000     0.817900000000     0.420910000000     0.0479324  
H93      H      0.789390000000     0.773560000000     0.412330000000     0.0478032  
H94      H      0.748220000000     0.776450000000     0.372470000000     0.0276859  
H95      H      0.808230000000     0.784590000000     0.287470000000     0.026847   
H96      H      0.849360000000     0.780820000000     0.327500000000     0.0474495  
H97      H      0.255520000000     0.214300000000     0.392330000000     0.0461655  
H98      H      0.251630000000     0.256010000000     0.354020000000     0.0290783  
H99      H      0.188590000000     0.209470000000     0.292420000000     0.0291095  
H100     H      0.192820000000     0.167590000000     0.330630000000     0.046125   
H101     H      0.178990000000     0.155970000000     0.390290000000     0.0463434  
H102     H      0.180750000000     0.116830000000     0.432460000000     0.0292813  
H103     H      0.274560000000     0.124650000000     0.436990000000     0.0289268  
H104     H      0.272720000000     0.163580000000     0.394460000000     0.0460458  
H105     H      0.269280000000     0.204120000000     0.652160000000     0.0458155  
H106     H      0.263890000000     0.245930000000     0.690160000000     0.0254879  
H107     H      0.173880000000     0.223410000000     0.707460000000     0.025677   
H108     H      0.178130000000     0.183210000000     0.667360000000     0.0457336  
H109     H      0.194240000000     0.137810000000     0.656300000000     0.0456741  
H110     H      0.195820000000     0.099330000000     0.613490000000     0.0246802  
H111     H      0.263090000000     0.145370000000     0.558560000000     0.0249717  
H112     H      0.259960000000     0.185360000000     0.599420000000     0.0458973  
H113     H      0.258740000000     0.897760000000     0.629930000000     0.0464643  
H114     H      0.253990000000     0.856030000000     0.668280000000     0.0292058  
H115     H      0.197580000000     0.906360000000     0.734520000000     0.028959   
H116     H      0.202670000000     0.948050000000     0.696360000000     0.0460385  
H117     H      0.185290000000     0.959110000000     0.638040000000     0.0462086  
H118     H      0.185600000000     0.998020000000     0.595790000000     0.0288071  
H119     H      0.278520000000     0.987240000000     0.582690000000     0.0290737  
H120     H      0.278170000000     0.948270000000     0.625520000000     0.0463588  
H121     H      0.234000000000     0.888270000000     0.411270000000     0.0478529  
H122     H      0.230430000000     0.846950000000     0.371770000000     0.0277436  
H123     H      0.222510000000     0.906490000000     0.286350000000     0.0269099  
H124     H      0.226960000000     0.947770000000     0.326010000000     0.0474817  
H125     H      0.271440000000     0.963890000000     0.377340000000     0.047515   
H126     H      0.271600000000     0.004490000000     0.418410000000     0.0271054  
H127     H      0.189690000000     0.974290000000     0.459940000000     0.027566   
H128     H      0.190130000000     0.933410000000     0.419640000000     0.0479684  
H129     H      0.682600000000     0.448510000000     0.134660000000     0.0463931  
H130     H      0.683980000000     0.487660000000     0.092640000000     0.0289308  
H131     H      0.777420000000     0.477940000000     0.084200000000     0.0287092  
H132     H      0.775960000000     0.438780000000     0.126680000000     0.0462643  
H133     H      0.756830000000     0.388010000000     0.130140000000     0.0463904  
H134     H      0.751890000000     0.346600000000     0.168930000000     0.0291279  
H135     H      0.693260000000     0.396680000000     0.232710000000     0.0288846  
H136     H      0.698500000000     0.438060000000     0.194070000000     0.0461332  
H137     H      0.694830000000     0.626740000000     0.160350000000     0.0456635  
H138     H      0.696400000000     0.589200000000     0.116340000000     0.0249479  
H139     H      0.765130000000     0.635410000000     0.064180000000     0.0252007  
H140     H      0.762070000000     0.674480000000     0.106210000000     0.0458825  
H141     H      0.770920000000     0.692020000000     0.159530000000     0.0456871  
H142     H      0.765430000000     0.733710000000     0.197650000000     0.0250972  
H143     H      0.674910000000     0.712210000000     0.212890000000     0.0256631  
H144     H      0.679300000000     0.672130000000     0.172610000000     0.0458124  
H145     H      0.757390000000     0.710130000000     0.897780000000     0.0465002  
H146     H      0.752740000000     0.751410000000     0.858680000000     0.0292725  
H147     H      0.696170000000     0.700380000000     0.793380000000     0.0288991  
H148     H      0.701100000000     0.659190000000     0.832310000000     0.0460582  
H149     H      0.684020000000     0.648790000000     0.891320000000     0.0463684  
H150     H      0.684970000000     0.609560000000     0.933250000000     0.0289826  
H151     H      0.778110000000     0.620170000000     0.944220000000     0.0287552  
H152     H      0.777080000000     0.659440000000     0.901850000000     0.0463331  
H153     H      0.762240000000     0.422080000000     0.922810000000     0.0459879  
H154     H      0.765190000000     0.461540000000     0.964400000000     0.0251288  
H155     H      0.698510000000     0.508530000000     0.909590000000     0.0247306  
H156     H      0.697140000000     0.470610000000     0.866060000000     0.0456641  
H157     H      0.680670000000     0.425490000000     0.854480000000     0.0457454  
H158     H      0.676010000000     0.385380000000     0.814390000000     0.0260054  
H159     H      0.765670000000     0.361650000000     0.831990000000     0.0258102  
H160     H      0.771500000000     0.403400000000     0.870030000000     0.0457971  
H161     H      0.570470000000     0.868960000000     0.125560000000     0.0463889  
H162     H      0.531210000000     0.871000000000     0.083130000000     0.0285951  
H163     H      0.518630000000     0.778140000000     0.093570000000     0.0288568  
H164     H      0.557800000000     0.776190000000     0.135550000000     0.04642    
H165     H      0.567790000000     0.793160000000     0.194810000000     0.0461914  
H166     H      0.608450000000     0.787160000000     0.234300000000     0.0289578  
H167     H      0.661740000000     0.842170000000     0.169650000000     0.0291773  
H168     H      0.620920000000     0.847910000000     0.129960000000     0.0465107  
H169     H      0.333190000000     0.858660000000     0.105930000000     0.045912   
H170     H      0.372400000000     0.861090000000     0.063970000000     0.0251409  
H171     H      0.417860000000     0.792250000000     0.116780000000     0.0248598  
H172     H      0.380210000000     0.791320000000     0.160730000000     0.0456421  
H173     H      0.334620000000     0.776280000000     0.172890000000     0.0457932  
H174     H      0.294350000000     0.772440000000     0.213020000000     0.0256645  
H175     H      0.273660000000     0.862990000000     0.197110000000     0.0250645  
H176     H      0.315550000000     0.867920000000     0.159120000000     0.0457416  
H177     H      0.349960000000     0.873260000000     0.900250000000     0.0463107  
H178     H      0.388760000000     0.873740000000     0.943270000000     0.0287632  
H179     H      0.397180000000     0.780330000000     0.933760000000     0.0289607  
H180     H      0.358400000000     0.779940000000     0.891200000000     0.0464731  
H181     H      0.349030000000     0.796620000000     0.831790000000     0.0461371  
H182     H      0.308040000000     0.792340000000     0.792360000000     0.0288913  
H183     H      0.257870000000     0.850880000000     0.856140000000     0.0291073  
H184     H      0.298890000000     0.854860000000     0.895720000000     0.0464839  
H185     H      0.585830000000     0.855350000000     0.923150000000     0.0460239  
H186     H      0.546220000000     0.858820000000     0.964480000000     0.0252196  
H187     H      0.499140000000     0.791860000000     0.910310000000     0.0248183  
H188     H      0.537280000000     0.789930000000     0.866990000000     0.045695   
H189     H      0.582550000000     0.773330000000     0.855780000000     0.0458371  
H190     H      0.623040000000     0.768340000000     0.816140000000     0.0257205  
H191     H      0.646490000000     0.858120000000     0.832790000000     0.025525   
H192     H      0.604430000000     0.864260000000     0.870290000000     0.0458682  
H193     H      0.160320000000     0.719170000000     0.128710000000     0.0465208  
H194     H      0.165410000000     0.759990000000     0.168490000000     0.0292105  
H195     H      0.218740000000     0.706540000000     0.234890000000     0.0290031  
H196     H      0.213390000000     0.665910000000     0.195320000000     0.0461288  
H197     H      0.231930000000     0.656120000000     0.136700000000     0.0463796  
H198     H      0.231200000000     0.617140000000     0.094510000000     0.0287736  
H199     H      0.138560000000     0.629570000000     0.080610000000     0.0286523  
H200     H      0.139380000000     0.668690000000     0.123290000000     0.0463738  
H201     H      0.153500000000     0.431440000000     0.103970000000     0.0459196  
H202     H      0.150920000000     0.470790000000     0.062250000000     0.0251285  
H203     H      0.219240000000     0.516500000000     0.115760000000     0.0248178  
H204     H      0.220310000000     0.478670000000     0.159440000000     0.0456547  
H205     H      0.235730000000     0.433190000000     0.171360000000     0.0457445  
H206     H      0.239780000000     0.392830000000     0.211290000000     0.0257475  
H207     H      0.149390000000     0.371450000000     0.194770000000     0.0251787  
H208     H      0.144230000000     0.413400000000     0.156980000000     0.0456673  
H209     H      0.219800000000     0.446470000000     0.832090000000     0.0461231  
H210     H      0.223880000000     0.405330000000     0.792830000000     0.0288678  
H211     H      0.163330000000     0.356530000000     0.855480000000     0.0291769  
H212     H      0.159560000000     0.397620000000     0.894850000000     0.0464169  
H213     H      0.141510000000     0.448470000000     0.898230000000     0.0462776  
H214     H      0.140130000000     0.487450000000     0.940820000000     0.0288997  
H215     H      0.233790000000     0.495870000000     0.934000000000     0.029065   
H216     H      0.235090000000     0.456790000000     0.891790000000     0.0463883  
H217     H      0.234550000000     0.656030000000     0.889080000000     0.0463429  
H218     H      0.233290000000     0.617150000000     0.931520000000     0.0290773  
H219     H      0.139870000000     0.626910000000     0.940080000000     0.0290298  
H220     H      0.141200000000     0.665720000000     0.897230000000     0.0462437  
H221     H      0.218850000000     0.666750000000     0.829810000000     0.0460852  
H222     H      0.223650000000     0.708110000000     0.791010000000     0.0289053  
H223     H      0.164330000000     0.757640000000     0.854490000000     0.0292094  
H224     H      0.159840000000     0.716300000000     0.893420000000     0.0464566  
H225     H      0.343720000000     0.236160000000     0.122570000000     0.0462683  
H226     H      0.383150000000     0.234280000000     0.080360000000     0.0287164  
H227     H      0.396880000000     0.326790000000     0.092890000000     0.0289406  
H228     H      0.357520000000     0.328580000000     0.134660000000     0.0463486  
H229     H      0.346760000000     0.311090000000     0.193360000000     0.0460933  
H230     H      0.305950000000     0.316950000000     0.232630000000     0.0290215  
H231     H      0.252550000000     0.263140000000     0.166740000000     0.0292163  
H232     H      0.293540000000     0.257540000000     0.127240000000     0.0464789  
H233     H      0.566430000000     0.308700000000     0.193920000000     0.046046   
H234     H      0.607860000000     0.312740000000     0.232720000000     0.0290297  
H235     H      0.657250000000     0.254460000000     0.167800000000     0.0291969  
H236     H      0.615780000000     0.250720000000     0.128830000000     0.046413   
H237     H      0.555780000000     0.325470000000     0.135040000000     0.0463234  
H238     H      0.516540000000     0.325090000000     0.093020000000     0.0290018  
H239     H      0.525660000000     0.231850000000     0.082340000000     0.0288783  
H240     H      0.564880000000     0.232300000000     0.124790000000     0.0461795  
H241     H      0.616860000000     0.252370000000     0.895280000000     0.0465191  
H242     H      0.658240000000     0.256670000000     0.856230000000     0.0293392  
H243     H      0.607650000000     0.313490000000     0.790780000000     0.0288877  
H244     H      0.566340000000     0.308910000000     0.829660000000     0.0460407  
H245     H      0.555800000000     0.326040000000     0.888550000000     0.0463148  
H246     H      0.516560000000     0.325350000000     0.930540000000     0.0289923  
H247     H      0.526830000000     0.232280000000     0.941830000000     0.0288164  
H248     H      0.566100000000     0.233040000000     0.899410000000     0.0462853  
H249     H      0.346150000000     0.235850000000     0.897530000000     0.0462399  
H250     H      0.385130000000     0.234120000000     0.940230000000     0.0289391  
H251     H      0.396810000000     0.327130000000     0.930310000000     0.0290602  
H252     H      0.357810000000     0.328800000000     0.888060000000     0.0463519  
H253     H      0.295800000000     0.255670000000     0.893320000000     0.0464866  
H254     H      0.254510000000     0.261020000000     0.854340000000     0.029329   
H255     H      0.305750000000     0.318330000000     0.790210000000     0.0289867  
H256     H      0.346990000000     0.312670000000     0.829010000000     0.0460442  
O1       O      0.426940000000     0.303850000000     0.045790000000    -0.549513   
O2       O      0.485680000000     0.303100000000     0.977390000000    -0.549631   
O3       O      0.427300000000     0.303950000000     0.976950000000    -0.548674   
O4       O      0.485340000000     0.302990000000     0.046250000000    -0.548822   
O5       O      0.484740000000     0.254320000000     0.046220000000    -0.542824   
O6       O      0.426470000000     0.255280000000     0.976760000000    -0.542737   
O7       O      0.485170000000     0.254440000000     0.977260000000    -0.542639   
O8       O      0.426010000000     0.255190000000     0.045710000000    -0.542724   
O9       O      0.160740000000     0.528140000000     0.046630000000    -0.543038   
O10      O      0.161470000000     0.586520000000     0.977400000000    -0.543753   
O11      O      0.161670000000     0.527950000000     0.977810000000    -0.544095   
O12      O      0.160570000000     0.586890000000     0.046360000000    -0.543223   
O13      O      0.209290000000     0.587270000000     0.046720000000    -0.550114   
O14      O      0.210380000000     0.527830000000     0.979240000000    -0.548475   
O15      O      0.210180000000     0.586190000000     0.977890000000    -0.548336   
O16      O      0.209490000000     0.529100000000     0.048280000000    -0.54776    
O17      O      0.428400000000     0.802550000000     0.980180000000    -0.549919   
O18      O      0.488430000000     0.801450000000     0.046920000000    -0.550273   
O19      O      0.430220000000     0.802280000000     0.049180000000    -0.548138   
O20      O      0.486620000000     0.801720000000     0.977970000000    -0.547768   
O21      O      0.488510000000     0.850410000000     0.979440000000    -0.543596   
O22      O      0.429740000000     0.851010000000     0.048200000000    -0.543649   
O23      O      0.488500000000     0.850120000000     0.048230000000    -0.543904   
O24      O      0.429770000000     0.851210000000     0.979350000000    -0.543652   
O25      O      0.707090000000     0.518730000000     0.046640000000    -0.549822   
O26      O      0.707470000000     0.578770000000     0.979940000000    -0.549361   
O27      O      0.707550000000     0.520580000000     0.977660000000    -0.547472   
O28      O      0.707010000000     0.576890000000     0.048930000000    -0.547573   
O29      O      0.755780000000     0.578130000000     0.048150000000    -0.543161   
O30      O      0.756310000000     0.519430000000     0.979330000000    -0.542828   
O31      O      0.756200000000     0.578160000000     0.979310000000    -0.543116   
O32      O      0.755800000000     0.519430000000     0.048160000000    -0.543302   
O33      O      0.207030000000     0.027590000000     0.547580000000    -0.550401   
O34      O      0.204810000000     0.084590000000     0.477220000000    -0.547498   
O35      O      0.206170000000     0.026050000000     0.478970000000    -0.548467   
O36      O      0.205690000000     0.085730000000     0.546280000000    -0.547873   
O37      O      0.254450000000     0.087240000000     0.545000000000    -0.543344   
O38      O      0.254890000000     0.027360000000     0.477630000000    -0.544116   
O39      O      0.253510000000     0.085800000000     0.476240000000    -0.545089   
O40      O      0.255740000000     0.028500000000     0.546690000000    -0.542231   
O41      O      0.929070000000     0.755540000000     0.479340000000    -0.544603   
O42      O      0.988820000000     0.757640000000     0.546860000000    -0.544502   
O43      O      0.930200000000     0.755670000000     0.548370000000    -0.543519   
O44      O      0.987550000000     0.757590000000     0.477950000000    -0.545055   
O45      O      0.985330000000     0.806200000000     0.477470000000    -0.548414   
O46      O      0.929160000000     0.804330000000     0.548820000000    -0.549863   
O47      O      0.987450000000     0.806290000000     0.546330000000    -0.548631   
O48      O      0.926810000000     0.804190000000     0.480200000000    -0.548433   
O49      O      0.660710000000     0.019410000000     0.547740000000    -0.543856   
O50      O      0.660460000000     0.078020000000     0.478810000000    -0.54432    
O51      O      0.660850000000     0.019440000000     0.478780000000    -0.543637   
O52      O      0.660350000000     0.078060000000     0.547750000000    -0.543337   
O53      O      0.709070000000     0.078220000000     0.547800000000    -0.549032   
O54      O      0.709560000000     0.019860000000     0.478970000000    -0.549265   
O55      O      0.709170000000     0.078180000000     0.478930000000    -0.549076   
O56      O      0.709420000000     0.019860000000     0.547840000000    -0.549243   
O57      O      0.986330000000     0.305400000000     0.547490000000    -0.550839   
O58      O      0.928880000000     0.301770000000     0.477710000000    -0.548039   
O59      O      0.987450000000     0.303830000000     0.478880000000    -0.548189   
O60      O      0.928160000000     0.303390000000     0.546750000000    -0.548106   
O61      O      0.926100000000     0.352060000000     0.544830000000    -0.543023   
O62      O      0.985520000000     0.352470000000     0.476800000000    -0.543528   
O63      O      0.927010000000     0.350390000000     0.476070000000    -0.544292   
O64      O      0.984920000000     0.354040000000     0.545870000000    -0.541444   
O65      O      0.228260000000     0.286240000000     0.307070000000    -0.547431   
O66      O      0.215090000000     0.354460000000     0.254280000000    -0.546161   
O67      O      0.189020000000     0.329210000000     0.308960000000    -0.546729   
O68      O      0.254140000000     0.311390000000     0.252760000000    -0.548501   
O69      O      0.225290000000     0.286240000000     0.217260000000    -0.543624   
O70      O      0.160000000000     0.304170000000     0.273470000000    -0.545101   
O71      O      0.185750000000     0.329350000000     0.219190000000    -0.5449     
O72      O      0.199310000000     0.261010000000     0.271770000000    -0.544602   
O73      O      0.711880000000     0.250840000000     0.271050000000    -0.546647   
O74      O      0.728050000000     0.317790000000     0.217180000000    -0.546199   
O75      O      0.753480000000     0.291680000000     0.271310000000    -0.54585    
O76      O      0.686350000000     0.276910000000     0.216920000000    -0.544777   
O77      O      0.659580000000     0.304010000000     0.252690000000    -0.546945   
O78      O      0.726670000000     0.318870000000     0.306930000000    -0.546613   
O79      O      0.701160000000     0.344860000000     0.252840000000    -0.547246   
O80      O      0.685070000000     0.277930000000     0.306790000000    -0.5464     
O81      O      0.753360000000     0.294150000000     0.751590000000    -0.546642   
O82      O      0.686890000000     0.279580000000     0.807030000000    -0.545169   
O83      O      0.711990000000     0.253340000000     0.752780000000    -0.54684    
O84      O      0.728510000000     0.320690000000     0.805900000000    -0.544207   
O85      O      0.699950000000     0.347180000000     0.771310000000    -0.546394   
O86      O      0.685630000000     0.280340000000     0.716490000000    -0.54529    
O87      O      0.659450000000     0.305500000000     0.770740000000    -0.546892   
O88      O      0.726430000000     0.322270000000     0.716990000000    -0.544277   
O89      O      0.754030000000     0.800860000000     0.276240000000    -0.546328   
O90      O      0.688910000000     0.818570000000     0.219780000000    -0.544812   
O91      O      0.714450000000     0.843780000000     0.274490000000    -0.545338   
O92      O      0.728680000000     0.775690000000     0.221750000000    -0.545239   
O93      O      0.699340000000     0.750300000000     0.256570000000    -0.546486   
O94      O      0.685530000000     0.818270000000     0.309560000000    -0.547493   
O95      O      0.660060000000     0.793140000000     0.255010000000    -0.549218   
O96      O      0.725040000000     0.775540000000     0.311490000000    -0.547037   
O97      O      0.713930000000     0.846110000000     0.754260000000    -0.54743    
O98      O      0.729560000000     0.779790000000     0.809430000000    -0.545523   
O99      O      0.755610000000     0.805370000000     0.755360000000    -0.546785   
O100     O      0.687790000000     0.820740000000     0.808200000000    -0.545136   
O101     O      0.661710000000     0.792310000000     0.773040000000    -0.546469   
O102     O      0.729230000000     0.778210000000     0.719270000000    -0.546701   
O103     O      0.703740000000     0.752130000000     0.773280000000    -0.547313   
O104     O      0.687130000000     0.818690000000     0.718870000000    -0.545417   
O105     O      0.188060000000     0.784170000000     0.309070000000    -0.548127   
O106     O      0.256360000000     0.797370000000     0.256380000000    -0.546569   
O107     O      0.231030000000     0.823430000000     0.311000000000    -0.546719   
O108     O      0.213290000000     0.758340000000     0.254830000000    -0.548957   
O109     O      0.188140000000     0.787130000000     0.219260000000    -0.544258   
O110     O      0.205940000000     0.852370000000     0.275460000000    -0.545431   
O111     O      0.231230000000     0.826670000000     0.221250000000    -0.54499    
O112     O      0.162790000000     0.813020000000     0.273700000000    -0.544896   
O113     O      0.231320000000     0.827190000000     0.717320000000    -0.545724   
O114     O      0.215250000000     0.759910000000     0.770750000000    -0.54646    
O115     O      0.189930000000     0.785990000000     0.716520000000    -0.546532   
O116     O      0.256530000000     0.801050000000     0.771530000000    -0.547237   
O117     O      0.229320000000     0.827840000000     0.807140000000    -0.546856   
O118     O      0.162740000000     0.812850000000     0.752070000000    -0.547289   
O119     O      0.187950000000     0.786670000000     0.806290000000    -0.546282   
O120     O      0.204100000000     0.853950000000     0.752960000000    -0.547138   
O121     O      0.253630000000     0.311960000000     0.770550000000    -0.546572   
O122     O      0.186880000000     0.329620000000     0.716780000000    -0.544734   
O123     O      0.213480000000     0.354210000000     0.771190000000    -0.545955   
O124     O      0.227280000000     0.287270000000     0.716270000000    -0.544933   
O125     O      0.198800000000     0.260980000000     0.751140000000    -0.546947   
O126     O      0.186300000000     0.327530000000     0.806960000000    -0.547131   
O127     O      0.159230000000     0.303580000000     0.752690000000    -0.547992   
O128     O      0.226150000000     0.284890000000     0.805590000000    -0.545706   
V1       V      0.456350000000     0.305390000000     0.011600000000     1.39863    
V2       V      0.455570000000     0.252830000000     0.011490000000     1.37237    
V3       V      0.159130000000     0.557380000000     0.012030000000     1.37605    
V4       V      0.211770000000     0.557590000000     0.013050000000     1.39704    
V5       V      0.458380000000     0.800060000000     0.013560000000     1.39882    
V6       V      0.459150000000     0.852670000000     0.013820000000     1.37711    
V7       V      0.705340000000     0.548740000000     0.013270000000     1.39803    
V8       V      0.758010000000     0.548790000000     0.013750000000     1.37581    
V9       V      0.203990000000     0.055980000000     0.512490000000     1.39661    
V10      V      0.256620000000     0.057260000000     0.511370000000     1.37719    
V11      V      0.958970000000     0.754640000000     0.513140000000     1.37859    
V12      V      0.957140000000     0.807180000000     0.513170000000     1.39607    
V13      V      0.658620000000     0.048720000000     0.513270000000     1.37592    
V14      V      0.711230000000     0.049040000000     0.513400000000     1.39749    
V15      V      0.957730000000     0.301670000000     0.512720000000     1.39809    
V16      V      0.955830000000     0.354220000000     0.510850000000     1.37498    
V17      V      0.222750000000     0.321360000000     0.282180000000     1.39134    
V18      V      0.191440000000     0.294170000000     0.243980000000     1.38123    
V19      V      0.721010000000     0.283220000000     0.242680000000     1.38458    
V20      V      0.692050000000     0.312490000000     0.281240000000     1.3884     
V21      V      0.721280000000     0.285890000000     0.780780000000     1.38626    
V22      V      0.691790000000     0.314890000000     0.742420000000     1.3862     
V23      V      0.722670000000     0.810760000000     0.246640000000     1.38398    
V24      V      0.691370000000     0.783260000000     0.284560000000     1.39192    
V25      V      0.722780000000     0.814090000000     0.783260000000     1.38678    
V26      V      0.694400000000     0.784260000000     0.744660000000     1.38762    
V27      V      0.223220000000     0.789710000000     0.284240000000     1.39228    
V28      V      0.196000000000     0.820940000000     0.245980000000     1.38225    
V29      V      0.224340000000     0.792460000000     0.742590000000     1.38643    
V30      V      0.194930000000     0.821400000000     0.781040000000     1.38796    
V31      V      0.221410000000     0.321830000000     0.742250000000     1.38393    
V32      V      0.191540000000     0.293170000000     0.780530000000     1.38962    


