data_structure

_audit_creation_method RASPA-1.0
_audit_creation_date 2023-6-5
_audit_author_name 'Poobodin Mano'

_cell_length_a    49.6063
_cell_length_b    49.5952
_cell_length_c    29.7598
_cell_angle_alpha 89.9828
_cell_angle_beta  90.0174
_cell_angle_gamma 119.981
_cell_volume      63419.1

_symmetry_cell_setting          triclinic
_symmetry_space_group_name_Hall 'P 1'
_symmetry_space_group_name_H-M  'P 1'
_symmetry_Int_Tables_number     1

_symmetry_equiv_pos_as_xyz 'x,y,z'

loop_
_atom_site_label
_atom_site_type_symbol
_atom_site_fract_x
_atom_site_fract_y
_atom_site_fract_z
_atom_site_charge
C1       C      0.838860000000     0.659480000000     0.552360000000     0.435272   
C2       C      0.809390000000     0.655750000000     0.715750000000     0.43416    
C3       C      0.767550000000     0.630690000000     0.610810000000     0.433878   
C4       C      0.880750000000     0.684680000000     0.657280000000     0.433653   
C5       C      0.142900000000     0.812530000000     0.881460000000     0.434642   
C6       C      0.172800000000     0.837090000000     0.717850000000     0.434569   
C7       C      0.214420000000     0.854230000000     0.823000000000     0.43436    
C8       C      0.101260000000     0.795370000000     0.776210000000     0.43454    
C9       C      0.476010000000     0.988780000000     0.049760000000     0.434463   
C10      C      0.505490000000     0.992480000000     0.886360000000     0.435533   
C11      C      0.547290000000     0.017400000000     0.991350000000     0.433487   
C12      C      0.434130000000     0.963850000000     0.944750000000     0.434129   
C13      C      0.142650000000     0.323440000000     0.383170000000     0.434137   
C14      C      0.171910000000     0.327160000000     0.219680000000     0.435341   
C15      C      0.213910000000     0.352320000000     0.324470000000     0.433929   
C16      C      0.100640000000     0.298380000000     0.278360000000     0.433759   
C17      C      0.809370000000     0.144950000000     0.216050000000     0.435112   
C18      C      0.838790000000     0.170620000000     0.052620000000     0.434109   
C19      C      0.880700000000     0.187810000000     0.157570000000     0.43382    
C20      C      0.767540000000     0.127850000000     0.111070000000     0.434285   
C21      C      0.505970000000     0.504090000000     0.384690000000     0.434884   
C22      C      0.476120000000     0.479530000000     0.548320000000     0.434552   
C23      C      0.434460000000     0.462540000000     0.443120000000     0.434473   
C24      C      0.547640000000     0.521090000000     0.489800000000     0.434425   
C25      C      0.147340000000     0.331650000000     0.719330000000     0.434439   
C26      C      0.173070000000     0.327910000000     0.882740000000     0.435479   
C27      C      0.189780000000     0.302720000000     0.777860000000     0.434169   
C28      C      0.130540000000     0.356710000000     0.824240000000     0.434027   
C29      C      0.329280000000     0.150110000000     0.717660000000     0.434662   
C30      C      0.324000000000     0.174690000000     0.554010000000     0.43464    
C31      C      0.299520000000     0.191890000000     0.659190000000     0.434668   
C32      C      0.353750000000     0.132910000000     0.612580000000     0.434371   
C33      C      0.990320000000     0.507880000000     0.886890000000     0.434794   
C34      C      0.995620000000     0.483300000000     0.050530000000     0.435167   
C35      C      0.020280000000     0.466290000000     0.945450000000     0.43376    
C36      C      0.965670000000     0.524890000000     0.992060000000     0.434743   
C37      C      0.657930000000     0.842230000000     0.219320000000     0.435379   
C38      C      0.661730000000     0.816540000000     0.382750000000     0.43424    
C39      C      0.686450000000     0.799380000000     0.277790000000     0.434197   
C40      C      0.633190000000     0.859300000000     0.324300000000     0.434272   
C41      C      0.838450000000     0.660230000000     0.215410000000     0.435109   
C42      C      0.812880000000     0.663940000000     0.051910000000     0.434381   
C43      C      0.795890000000     0.688970000000     0.156700000000     0.434072   
C44      C      0.855310000000     0.635100000000     0.110650000000     0.43427    
C45      C      0.480720000000     0.998240000000     0.386020000000     0.434308   
C46      C      0.506500000000     0.994530000000     0.549450000000     0.435591   
C47      C      0.523390000000     0.969620000000     0.444480000000     0.434143   
C48      C      0.463760000000     0.023180000000     0.491000000000     0.433161   
C49      C      0.323440000000     0.145800000000     0.053970000000     0.434635   
C50      C      0.328980000000     0.175730000000     0.217600000000     0.434715   
C51      C      0.353870000000     0.217290000000     0.112400000000     0.435003   
C52      C      0.298550000000     0.104080000000     0.159040000000     0.434804   
C53      C      0.504090000000     0.508270000000     0.048360000000     0.4343     
C54      C      0.479780000000     0.478350000000     0.884710000000     0.434031   
C55      C      0.463310000000     0.436770000000     0.989870000000     0.434536   
C56      C      0.520680000000     0.550000000000     0.943320000000     0.434574   
C57      C      0.146940000000     0.811580000000     0.217870000000     0.434596   
C58      C      0.171320000000     0.841460000000     0.381520000000     0.434886   
C59      C      0.188140000000     0.883210000000     0.276480000000     0.434712   
C60      C      0.130280000000     0.769990000000     0.323050000000     0.434839   
C61      C      0.995140000000     0.508870000000     0.550510000000     0.434945   
C62      C      0.989550000000     0.478970000000     0.386860000000     0.434872   
C63      C      0.964410000000     0.437220000000     0.491890000000     0.434515   
C64      C      0.020240000000     0.550460000000     0.445360000000     0.433995   
C65      C      0.834120000000     0.175030000000     0.716380000000     0.434312   
C66      C      0.808290000000     0.145650000000     0.552960000000     0.434948   
C67      C      0.791050000000     0.103800000000     0.657970000000     0.433853   
C68      C      0.851470000000     0.216940000000     0.611430000000     0.434167   
C69      C      0.656190000000     0.841600000000     0.882390000000     0.434863   
C70      C      0.652670000000     0.812240000000     0.718980000000     0.434405   
C71      C      0.628070000000     0.770310000000     0.823900000000     0.433857   
C72      C      0.680830000000     0.883470000000     0.777410000000     0.434163   
C73      C      0.696810000000     0.964420000000     0.746490000000    -0.0734144  
C74      C      0.726440000000     0.977370000000     0.726460000000     0.025758   
C75      C      0.740650000000     0.958970000000     0.723540000000    -0.0742428  
C76      C      0.725990000000     0.928770000000     0.740780000000     0.0369352  
C77      C      0.696430000000     0.915870000000     0.760620000000    -0.134006   
C78      C      0.681850000000     0.933900000000     0.763050000000     0.0363359  
C79      C      0.742720000000     0.009910000000     0.708930000000     0.0245666  
C80      C      0.726060000000     0.022890000000     0.688850000000    -0.0730945  
C81      C      0.741640000000     0.053410000000     0.672290000000     0.0361199  
C82      C      0.774230000000     0.071400000000     0.674760000000    -0.133875   
C83      C      0.790860000000     0.058470000000     0.694650000000     0.0367014  
C84      C      0.775320000000     0.028280000000     0.711880000000    -0.0738976  
C85      C      0.949550000000     0.361530000000     0.545080000000    -0.0737819  
C86      C      0.916960000000     0.343140000000     0.542260000000     0.0251526  
C87      C      0.900230000000     0.355770000000     0.521560000000    -0.0739611  
C88      C      0.915630000000     0.386160000000     0.504780000000     0.0361178  
C89      C      0.948170000000     0.404580000000     0.507920000000    -0.13389    
C90      C      0.964970000000     0.391820000000     0.527950000000     0.036471   
C91      C      0.900480000000     0.310970000000     0.560960000000     0.0251184  
C92      C      0.913500000000     0.291550000000     0.557320000000    -0.0738013  
C93      C      0.897880000000     0.261270000000     0.574480000000     0.0363876  
C94      C      0.868730000000     0.249560000000     0.595360000000    -0.133935   
C95      C      0.855780000000     0.269000000000     0.599310000000     0.0359084  
C96      C      0.871520000000     0.299380000000     0.582500000000    -0.074067   
C97      C      0.066190000000     0.688930000000     0.354590000000    -0.0736255  
C98      C      0.083130000000     0.676350000000     0.374900000000     0.0253248  
C99      C      0.115750000000     0.694860000000     0.377170000000    -0.0741315  
C100     C      0.130990000000     0.724960000000     0.359450000000     0.0369409  
C101     C      0.114010000000     0.737570000000     0.339730000000    -0.13447    
C102     C      0.081440000000     0.719290000000     0.337560000000     0.0368219  
C103     C      0.066980000000     0.644120000000     0.393580000000     0.025039   
C104     C      0.037490000000     0.631640000000     0.413900000000    -0.0732742  
C105     C      0.022320000000     0.601280000000     0.430930000000     0.0360422  
C106     C      0.036500000000     0.582890000000     0.428730000000    -0.133964   
C107     C      0.066070000000     0.595400000000     0.409000000000     0.0365893  
C108     C      0.080990000000     0.625500000000     0.391290000000    -0.0738812  
C109     C      0.615450000000     0.695660000000     0.878000000000    -0.0737324  
C110     C      0.583010000000     0.676260000000     0.874320000000     0.0250064  
C111     C      0.565680000000     0.687900000000     0.852750000000    -0.0739629  
C112     C      0.580320000000     0.718280000000     0.835960000000     0.0358471  
C113     C      0.612690000000     0.737690000000     0.839960000000    -0.133819   
C114     C      0.630120000000     0.725940000000     0.860860000000     0.0362281  
C115     C      0.567320000000     0.644100000000     0.892990000000     0.0251509  
C116     C      0.581500000000     0.625670000000     0.890180000000    -0.0738074  
C117     C      0.566630000000     0.595380000000     0.907290000000     0.0364964  
C118     C      0.537090000000     0.582650000000     0.927290000000    -0.133896   
C119     C      0.522970000000     0.601080000000     0.930420000000     0.0360799  
C120     C      0.537970000000     0.631480000000     0.913650000000    -0.0740051  
C121     C      0.249360000000     0.958660000000     0.223390000000    -0.0740008  
C122     C      0.235650000000     0.977490000000     0.226840000000     0.0256739  
C123     C      0.206380000000     0.965140000000     0.247700000000    -0.0740845  
C124     C      0.191060000000     0.934650000000     0.264160000000     0.0361909  
C125     C      0.204770000000     0.915870000000     0.260530000000    -0.134031   
C126     C      0.234180000000     0.928300000000     0.240210000000     0.0367186  
C127     C      0.251810000000     0.009810000000     0.208700000000     0.0245918  
C128     C      0.284330000000     0.028620000000     0.212170000000    -0.0737473  
C129     C      0.299500000000     0.058980000000     0.195340000000     0.0365587  
C130     C      0.282530000000     0.071420000000     0.175000000000    -0.134034   
C131     C      0.250050000000     0.052660000000     0.171360000000     0.0359744  
C132     C      0.234890000000     0.022170000000     0.187820000000    -0.0738142  
C133     C      0.370830000000     0.298350000000     0.080750000000    -0.0735907  
C134     C      0.400340000000     0.310910000000     0.060450000000     0.025259   
C135     C      0.414440000000     0.292370000000     0.058220000000    -0.0741036  
C136     C      0.399600000000     0.262290000000     0.075970000000     0.0369309  
C137     C      0.370020000000     0.249710000000     0.095690000000    -0.134442   
C138     C      0.355740000000     0.268010000000     0.097810000000     0.0368761  
C139     C      0.416410000000     0.343130000000     0.041740000000     0.0252475  
C140     C      0.399400000000     0.355620000000     0.021380000000    -0.0735967  
C141     C      0.414580000000     0.385970000000     0.004330000000     0.0368979  
C142     C      0.447140000000     0.404340000000     0.006520000000    -0.134223   
C143     C      0.464200000000     0.391820000000     0.026280000000     0.0367971  
C144     C      0.449030000000     0.361730000000     0.044030000000    -0.0740576  
C145     C      0.685680000000     0.826910000000     0.505230000000    -0.0738869  
C146     C      0.658600000000     0.803520000000     0.526010000000     0.0249877  
C147     C      0.633470000000     0.782890000000     0.498950000000    -0.0742734  
C148     C      0.634940000000     0.786310000000     0.452220000000     0.0357543  
C149     C      0.661530000000     0.810570000000     0.431580000000    -0.133652   
C150     C      0.687120000000     0.830430000000     0.458570000000     0.0361491  
C151     C      0.655890000000     0.802210000000     0.575770000000     0.0250748  
C152     C      0.681060000000     0.806860000000     0.602880000000    -0.0743772  
C153     C      0.679560000000     0.808860000000     0.649590000000     0.035882   
C154     C      0.652920000000     0.806450000000     0.670170000000    -0.133743   
C155     C      0.627300000000     0.800590000000     0.643130000000     0.0361632  
C156     C      0.628760000000     0.798450000000     0.596480000000    -0.0740102  
C157     C      0.683440000000     0.871230000000     0.000170000000    -0.0733417  
C158     C      0.656500000000     0.852320000000     0.025720000000     0.0251183  
C159     C      0.628990000000     0.831550000000     0.002670000000    -0.0733462  
C160     C      0.628630000000     0.829300000000     0.955860000000     0.0374174  
C161     C      0.655930000000     0.847020000000     0.931010000000    -0.13482    
C162     C      0.683280000000     0.868180000000     0.953440000000     0.0375021  
C163     C      0.657480000000     0.852750000000     0.076010000000     0.0252914  
C164     C      0.685050000000     0.859650000000     0.099030000000    -0.0735331  
C165     C      0.685440000000     0.857700000000     0.145820000000     0.0376837  
C166     C      0.658110000000     0.847910000000     0.170710000000    -0.135139   
C167     C      0.630700000000     0.841560000000     0.148320000000     0.0378066  
C168     C      0.630500000000     0.844510000000     0.101590000000    -0.0736115  
C169     C      0.699590000000     0.737690000000     0.223630000000    -0.0737432  
C170     C      0.732100000000     0.751150000000     0.226720000000     0.0250918  
C171     C      0.749300000000     0.780200000000     0.248060000000    -0.0740533  
C172     C      0.734450000000     0.795660000000     0.265130000000     0.0359465  
C173     C      0.702010000000     0.782330000000     0.261640000000    -0.13391    
C174     C      0.684710000000     0.753040000000     0.241030000000     0.0362097  
C175     C      0.748050000000     0.735050000000     0.207600000000     0.0251058  
C176     C      0.734440000000     0.702520000000     0.210690000000    -0.0737707  
C177     C      0.749670000000     0.687510000000     0.193330000000     0.0363207  
C178     C      0.778980000000     0.704680000000     0.172770000000    -0.133998   
C179     C      0.792460000000     0.737150000000     0.169260000000     0.0359645  
C180     C      0.777130000000     0.752140000000     0.186290000000    -0.0740929  
C181     C      0.617100000000     0.924140000000     0.355370000000    -0.0734142  
C182     C      0.587510000000     0.907430000000     0.375500000000     0.0252861  
C183     C      0.573290000000     0.874820000000     0.378300000000    -0.0741709  
C184     C      0.587960000000     0.859320000000     0.360930000000     0.0369034  
C185     C      0.617510000000     0.876020000000     0.341070000000    -0.134201   
C186     C      0.632040000000     0.908610000000     0.338680000000     0.0365219  
C187     C      0.571310000000     0.923710000000     0.393310000000     0.0251638  
C188     C      0.588070000000     0.953310000000     0.413400000000    -0.0732989  
C189     C      0.572610000000     0.968330000000     0.430080000000     0.0364637  
C190     C      0.540030000000     0.953860000000     0.427730000000    -0.134147   
C191     C      0.523270000000     0.924290000000     0.407920000000     0.0368366  
C192     C      0.538700000000     0.909550000000     0.390550000000    -0.0740449  
C193     C      0.968580000000     0.515820000000     0.667170000000    -0.0744346  
C194     C      0.993940000000     0.520290000000     0.693690000000     0.0253758  
C195     C      0.020600000000     0.523350000000     0.672350000000    -0.0743988  
C196     C      0.021410000000     0.520710000000     0.625700000000     0.0357947  
C197     C      0.995590000000     0.515050000000     0.599290000000    -0.133631   
C198     C      0.969430000000     0.513320000000     0.620470000000     0.0360583  
C199     C      0.991860000000     0.519520000000     0.743490000000     0.0253909  
C200     C      0.017480000000     0.540150000000     0.769800000000    -0.0747713  
C201     C      0.016530000000     0.537210000000     0.816570000000     0.0355978  
C202     C      0.990010000000     0.513430000000     0.838020000000    -0.133591   
C203     C      0.963960000000     0.493580000000     0.811790000000     0.0362123  
C204     C      0.964870000000     0.496630000000     0.765070000000    -0.0740852  
C205     C      0.020620000000     0.493980000000     0.172580000000    -0.0744293  
C206     C      0.993770000000     0.470490000000     0.193710000000     0.0254615  
C207     C      0.968450000000     0.449780000000     0.167030000000    -0.0745112  
C208     C      0.969520000000     0.453170000000     0.120330000000     0.036094   
C209     C      0.995870000000     0.477500000000     0.099330000000    -0.133691   
C210     C      0.021630000000     0.497490000000     0.125920000000     0.0359919  
C211     C      0.991500000000     0.469130000000     0.243490000000     0.0254527  
C212     C      0.016860000000     0.473640000000     0.270000000000    -0.0748115  
C213     C      0.015750000000     0.475530000000     0.316770000000     0.0356489  
C214     C      0.989320000000     0.473180000000     0.337990000000    -0.133604   
C215     C      0.963520000000     0.467480000000     0.311540000000     0.0364012  
C216     C      0.964570000000     0.465410000000     0.264830000000    -0.0740908  
C217     C      0.905280000000     0.540030000000     0.045400000000    -0.074081   
C218     C      0.919400000000     0.572640000000     0.042540000000     0.0252821  
C219     C      0.948990000000     0.589410000000     0.022430000000    -0.0735368  
C220     C      0.964060000000     0.573980000000     0.005960000000     0.0368245  
C221     C      0.949690000000     0.541400000000     0.008510000000    -0.134182   
C222     C      0.920100000000     0.524610000000     0.028230000000     0.0368588  
C223     C      0.903160000000     0.588900000000     0.060270000000     0.0251456  
C224     C      0.870550000000     0.574730000000     0.057530000000    -0.074067   
C225     C      0.855140000000     0.589560000000     0.074620000000     0.0368377  
C226     C      0.871910000000     0.619220000000     0.094180000000    -0.134166   
C227     C      0.904490000000     0.633670000000     0.096600000000     0.0363925  
C228     C      0.919930000000     0.618570000000     0.080190000000    -0.0733837  
C229     C      0.298360000000     0.132130000000     0.931990000000    -0.0740491  
C230     C      0.325300000000     0.135900000000     0.910600000000     0.0249693  
C231     C      0.350700000000     0.140480000000     0.937080000000    -0.0742973  
C232     C      0.349630000000     0.142390000000     0.983850000000     0.0357055  
C233     C      0.323190000000     0.139990000000     0.005110000000    -0.133823   
C234     C      0.297340000000     0.134210000000     0.978700000000     0.0362125  
C235     C      0.327530000000     0.137270000000     0.860820000000     0.0251043  
C236     C      0.302200000000     0.116550000000     0.834170000000    -0.0745174  
C237     C      0.303220000000     0.119960000000     0.787470000000     0.036029   
C238     C      0.329550000000     0.144300000000     0.766440000000    -0.134079   
C239     C      0.355340000000     0.164290000000     0.793010000000     0.0362922  
C240     C      0.354360000000     0.160770000000     0.839660000000    -0.0740564  
C241     C      0.354390000000     0.190190000000     0.339480000000    -0.0740452  
C242     C      0.327700000000     0.187090000000     0.360790000000     0.0250163  
C243     C      0.302350000000     0.182600000000     0.334250000000    -0.0744078  
C244     C      0.303220000000     0.180120000000     0.287550000000     0.0360196  
C245     C      0.329410000000     0.181890000000     0.266390000000    -0.133985   
C246     C      0.355220000000     0.187570000000     0.292820000000     0.0361716  
C247     C      0.325610000000     0.186310000000     0.410590000000     0.0250572  
C248     C      0.298600000000     0.163420000000     0.432150000000    -0.0741406  
C249     C      0.297680000000     0.160380000000     0.478870000000     0.0362734  
C250     C      0.323710000000     0.180230000000     0.505130000000    -0.134001   
C251     C      0.350240000000     0.204010000000     0.483690000000     0.0359762  
C252     C      0.351200000000     0.206950000000     0.436920000000    -0.0744031  
C253     C      0.402470000000     0.036600000000     0.545820000000    -0.0734835  
C254     C      0.415840000000     0.069090000000     0.542290000000     0.0248818  
C255     C      0.444720000000     0.086180000000     0.520460000000    -0.0738906  
C256     C      0.460080000000     0.071250000000     0.503330000000     0.0356083  
C257     C      0.446810000000     0.038820000000     0.507230000000    -0.133443   
C258     C      0.417710000000     0.021640000000     0.528340000000     0.0354832  
C259     C      0.399820000000     0.085120000000     0.561400000000     0.0251346  
C260     C      0.367250000000     0.071340000000     0.558920000000    -0.0738185  
C261     C      0.352270000000     0.086570000000     0.576350000000     0.0364304  
C262     C      0.369500000000     0.116070000000     0.596350000000    -0.133895   
C263     C      0.402020000000     0.129760000000     0.599210000000     0.0360004  
C264     C      0.416970000000     0.114410000000     0.582120000000    -0.0739535  
C265     C      0.083680000000     0.448020000000     0.915110000000    -0.0738698  
C266     C      0.066600000000     0.418730000000     0.894340000000     0.0249786  
C267     C      0.034040000000     0.404910000000     0.891730000000    -0.0735541  
C268     C      0.018980000000     0.420070000000     0.909120000000     0.0357139  
C269     C      0.036130000000     0.449550000000     0.929210000000    -0.133524   
C270     C      0.068650000000     0.463300000000     0.932150000000     0.0358404  
C271     C      0.082680000000     0.402720000000     0.875370000000     0.0250579  
C272     C      0.111610000000     0.419800000000     0.853670000000    -0.0740071  
C273     C      0.126980000000     0.404850000000     0.836600000000     0.0358435  
C274     C      0.113660000000     0.372420000000     0.840460000000    -0.133938   
C275     C      0.084520000000     0.355250000000     0.861490000000     0.0362518  
C276     C      0.069290000000     0.370230000000     0.878900000000    -0.0737602  
C277     C      0.239330000000     0.207330000000     0.712530000000    -0.0740481  
C278     C      0.253550000000     0.239950000000     0.709650000000     0.025217   
C279     C      0.283140000000     0.256630000000     0.689530000000    -0.0734614  
C280     C      0.298130000000     0.241090000000     0.673060000000     0.0365812  
C281     C      0.283640000000     0.208510000000     0.675630000000    -0.134136   
C282     C      0.254050000000     0.191810000000     0.695370000000     0.0367733  
C283     C      0.237410000000     0.256310000000     0.727360000000     0.0251035  
C284     C      0.204810000000     0.242230000000     0.724640000000    -0.0740374  
C285     C      0.189470000000     0.257130000000     0.741760000000     0.0367179  
C286     C      0.206320000000     0.286790000000     0.761300000000    -0.134032   
C287     C      0.238890000000     0.301160000000     0.763680000000     0.0363177  
C288     C      0.254250000000     0.285990000000     0.747240000000    -0.0733651  
C289     C      0.470920000000     0.447180000000     0.665400000000    -0.0744391  
C290     C      0.465960000000     0.467830000000     0.691710000000     0.0250668  
C291     C      0.461900000000     0.490760000000     0.670130000000    -0.0740188  
C292     C      0.464060000000     0.493840000000     0.623410000000     0.0361626  
C293     C      0.470250000000     0.473970000000     0.597180000000    -0.133981   
C294     C      0.472940000000     0.450150000000     0.618620000000     0.0360158  
C295     C      0.467230000000     0.467030000000     0.741510000000     0.0249622  
C296     C      0.446350000000     0.471520000000     0.767990000000    -0.0743075  
C297     C      0.449670000000     0.473990000000     0.814700000000     0.0358258  
C298     C      0.474070000000     0.472190000000     0.835920000000    -0.133668   
C299     C      0.494220000000     0.466510000000     0.809540000000     0.0360431  
C300     C      0.490800000000     0.463900000000     0.762880000000    -0.0739799  
C301     C      0.520260000000     0.493370000000     0.262670000000    -0.0740165  
C302     C      0.516870000000     0.516840000000     0.241500000000     0.0250913  
C303     C      0.512250000000     0.537570000000     0.268160000000    -0.0745054  
C304     C      0.509950000000     0.534200000000     0.314860000000     0.0361171  
C305     C      0.512000000000     0.509880000000     0.335890000000    -0.134073   
C306     C      0.517800000000     0.489890000000     0.309330000000     0.0363452  
C307     C      0.515930000000     0.518180000000     0.191730000000     0.0250654  
C308     C      0.536780000000     0.513670000000     0.165230000000    -0.0744141  
C309     C      0.533760000000     0.511740000000     0.118460000000     0.0359245  
C310     C      0.509660000000     0.514070000000     0.097230000000    -0.133788   
C311     C      0.489560000000     0.519780000000     0.123660000000     0.036277   
C312     C      0.492700000000     0.521870000000     0.170370000000    -0.0739678  
C313     C      0.823980000000     0.188810000000     0.838850000000    -0.0739593  
C314     C      0.847330000000     0.185020000000     0.859610000000     0.0250662  
C315     C      0.867850000000     0.180350000000     0.832520000000    -0.0744446  
C316     C      0.864360000000     0.178370000000     0.785810000000     0.0359392  
C317     C      0.840150000000     0.180810000000     0.765200000000    -0.133724   
C318     C      0.820400000000     0.186690000000     0.792200000000     0.036178   
C319     C      0.848700000000     0.183680000000     0.909370000000     0.0249013  
C320     C      0.844200000000     0.204320000000     0.936430000000    -0.0741989  
C321     C      0.842240000000     0.200880000000     0.983140000000     0.0355024  
C322     C      0.844560000000     0.176600000000     0.003790000000    -0.133327   
C323     C      0.850290000000     0.156730000000     0.976810000000     0.0359139  
C324     C      0.852380000000     0.160260000000     0.930150000000    -0.0738034  
C325     C      0.805920000000     0.115990000000     0.435220000000    -0.0736473  
C326     C      0.797890000000     0.134900000000     0.409640000000     0.0252582  
C327     C      0.791130000000     0.155670000000     0.432660000000    -0.0735538  
C328     C      0.793020000000     0.157940000000     0.479460000000     0.0375952  
C329     C      0.802620000000     0.140220000000     0.504350000000    -0.135094   
C330     C      0.808820000000     0.119060000000     0.481950000000     0.0378     
C331     C      0.798420000000     0.134450000000     0.359350000000     0.0251689  
C332     C      0.819100000000     0.127560000000     0.336360000000    -0.0735098  
C333     C      0.821440000000     0.129500000000     0.289570000000     0.0375977  
C334     C      0.803890000000     0.139280000000     0.264660000000    -0.135025   
C335     C      0.782810000000     0.145630000000     0.287020000000     0.0376307  
C336     C      0.779680000000     0.142690000000     0.333740000000    -0.0734881  
C337     C      0.157470000000     0.355900000000     0.596990000000    -0.0740349  
C338     C      0.134010000000     0.328880000000     0.576170000000     0.0250357  
C339     C      0.113420000000     0.303680000000     0.603180000000    -0.0743786  
C340     C      0.116950000000     0.305030000000     0.649880000000     0.0358546  
C341     C      0.141280000000     0.331550000000     0.670550000000    -0.133811   
C342     C      0.161100000000     0.357200000000     0.643630000000     0.0362745  
C343     C      0.132620000000     0.326290000000     0.526410000000     0.0250037  
C344     C      0.137260000000     0.351540000000     0.499470000000    -0.0743202  
C345     C      0.139250000000     0.350170000000     0.452740000000     0.0357637  
C346     C      0.136840000000     0.323570000000     0.431980000000    -0.133763   
C347     C      0.130980000000     0.297880000000     0.458840000000     0.0362665  
C348     C      0.128840000000     0.299210000000     0.505500000000    -0.0739691  
C349     C      0.190190000000     0.355460000000     0.002830000000    -0.0735063  
C350     C      0.183320000000     0.327990000000     0.026120000000     0.0251464  
C351     C      0.175210000000     0.300930000000     0.000800000000    -0.0734664  
C352     C      0.172350000000     0.300940000000     0.954040000000     0.0376447  
C353     C      0.178680000000     0.328260000000     0.931380000000    -0.135281   
C354     C      0.188340000000     0.355670000000     0.956020000000     0.0376349  
C355     C      0.182760000000     0.327180000000     0.076420000000     0.0253146  
C356     C      0.201520000000     0.354240000000     0.101850000000    -0.073702   
C357     C      0.198390000000     0.354200000000     0.148560000000     0.037872   
C358     C      0.177300000000     0.326870000000     0.171080000000    -0.135391   
C359     C      0.159710000000     0.299480000000     0.146350000000     0.0378477  
C360     C      0.162030000000     0.299710000000     0.099570000000    -0.0737116  
C361     C      0.955540000000     0.249560000000     0.211600000000    -0.0739109  
C362     C      0.974620000000     0.236110000000     0.208510000000     0.0256156  
C363     C      0.962750000000     0.207030000000     0.187230000000    -0.0741356  
C364     C      0.932440000000     0.191550000000     0.170210000000     0.0359179  
C365     C      0.913310000000     0.204880000000     0.173700000000    -0.133797   
C366     C      0.925310000000     0.234180000000     0.194250000000     0.0363613  
C367     C      0.006670000000     0.252230000000     0.227570000000     0.0243979  
C368     C      0.025560000000     0.284760000000     0.224450000000    -0.073461   
C369     C      0.055810000000     0.299800000000     0.241760000000     0.0359356  
C370     C      0.068000000000     0.282650000000     0.262310000000    -0.133511   
C371     C      0.049060000000     0.250170000000     0.265840000000     0.0354964  
C372     C      0.018730000000     0.235170000000     0.248850000000    -0.0737465  
C373     C      0.353280000000     0.398030000000     0.412710000000    -0.0735077  
C374     C      0.340450000000     0.414800000000     0.392600000000     0.025208   
C375     C      0.358920000000     0.447420000000     0.389770000000    -0.0739515  
C376     C      0.389150000000     0.462840000000     0.406960000000     0.0366909  
C377     C      0.401970000000     0.446040000000     0.426660000000    -0.134026   
C378     C      0.383790000000     0.413460000000     0.429190000000     0.0365727  
C379     C      0.307950000000     0.398550000000     0.374860000000     0.0251026  
C380     C      0.295060000000     0.368870000000     0.354970000000    -0.0732907  
C381     C      0.264530000000     0.353760000000     0.338550000000     0.036248   
C382     C      0.246390000000     0.368210000000     0.340940000000    -0.133972   
C383     C      0.259270000000     0.397890000000     0.360450000000     0.0366451  
C384     C      0.289510000000     0.412720000000     0.377550000000    -0.0739877  
C385     C      0.508810000000     0.967080000000     0.667140000000    -0.0735496  
C386     C      0.516940000000     0.994020000000     0.692760000000     0.0255571  
C387     C      0.523780000000     0.021600000000     0.669780000000    -0.0739066  
C388     C      0.521880000000     0.022020000000     0.622980000000     0.0372793  
C389     C      0.512190000000     0.994720000000     0.598050000000    -0.134766   
C390     C      0.505900000000     0.967300000000     0.620410000000     0.0376914  
C391     C      0.516430000000     0.992990000000     0.743060000000     0.0256068  
C392     C      0.495710000000     0.965420000000     0.766030000000    -0.0735859  
C393     C      0.493400000000     0.965000000000     0.812830000000     0.0376411  
C394     C      0.510990000000     0.992300000000     0.837760000000    -0.13476    
C395     C      0.532100000000     0.019710000000     0.815410000000     0.0373954  
C396     C      0.535220000000     0.019930000000     0.768680000000    -0.073944   
C397     C      0.470720000000     0.017240000000     0.165850000000    -0.0747369  
C398     C      0.466210000000     0.992120000000     0.193010000000     0.0253225  
C399     C      0.462490000000     0.964990000000     0.172320000000    -0.0739386  
C400     C      0.464550000000     0.963490000000     0.125670000000     0.0360966  
C401     C      0.470270000000     0.989050000000     0.098590000000    -0.133262   
C402     C      0.472640000000     0.015690000000     0.119140000000     0.0354085  
C403     C      0.467590000000     0.994890000000     0.242760000000     0.0253164  
C404     C      0.490970000000     0.022030000000     0.263460000000    -0.0742849  
C405     C      0.494540000000     0.023530000000     0.310120000000     0.0357558  
C406     C      0.474720000000     0.997980000000     0.337190000000    -0.13324    
C407     C      0.450470000000     0.971330000000     0.316620000000     0.0356783  
C408     C      0.447010000000     0.969780000000     0.269900000000    -0.0743067  
C409     C      0.628310000000     0.033730000000     0.022330000000    -0.0730362  
C410     C      0.641160000000     0.063350000000     0.042360000000     0.0250023  
C411     C      0.622700000000     0.077510000000     0.045130000000    -0.0739078  
C412     C      0.592520000000     0.062760000000     0.027840000000     0.036484   
C413     C      0.579700000000     0.033160000000     0.008080000000    -0.133665   
C414     C      0.597820000000     0.018690000000     0.005720000000     0.0356995  
C415     C      0.673660000000     0.079650000000     0.060080000000     0.0251798  
C416     C      0.686610000000     0.062970000000     0.080170000000    -0.073346   
C417     C      0.717100000000     0.078520000000     0.096780000000     0.0363384  
C418     C      0.735120000000     0.111110000000     0.094350000000    -0.13406    
C419     C      0.722210000000     0.127790000000     0.074540000000     0.0367813  
C420     C      0.692030000000     0.112270000000     0.057250000000    -0.0740491  
C421     C      0.203860000000     0.846700000000     0.498450000000    -0.0744526  
C422     C      0.183050000000     0.851310000000     0.524910000000     0.0251033  
C423     C      0.159920000000     0.855140000000     0.503500000000    -0.0741211  
C424     C      0.156830000000     0.853070000000     0.456780000000     0.0364426  
C425     C      0.176880000000     0.847260000000     0.430390000000    -0.134115   
C426     C      0.200880000000     0.844800000000     0.451680000000     0.0360934  
C427     C      0.183920000000     0.849940000000     0.574690000000     0.0250691  
C428     C      0.187210000000     0.826400000000     0.595870000000    -0.0740945  
C429     C      0.184660000000     0.822890000000     0.642520000000     0.0363727  
C430     C      0.178890000000     0.842900000000     0.669060000000    -0.133988   
C431     C      0.176940000000     0.867270000000     0.648030000000     0.0360206  
C432     C      0.179330000000     0.870680000000     0.601330000000    -0.074408   
C433     C      0.137860000000     0.780290000000     0.998580000000    -0.0746071  
C434     C      0.132920000000     0.800950000000     0.024880000000     0.0251898  
C435     C      0.128800000000     0.823840000000     0.003290000000    -0.0740673  
C436     C      0.130900000000     0.826870000000     0.956570000000     0.0361922  
C437     C      0.137070000000     0.807000000000     0.930340000000    -0.133982   
C438     C      0.139820000000     0.783210000000     0.951800000000     0.0359877  
C439     C      0.134260000000     0.800190000000     0.074690000000     0.0249468  
C440     C      0.113410000000     0.804710000000     0.101210000000    -0.0743344  
C441     C      0.116780000000     0.807210000000     0.147910000000     0.0359345  
C442     C      0.141200000000     0.805420000000     0.169080000000    -0.133897   
C443     C      0.161320000000     0.799720000000     0.142660000000     0.0361077  
C444     C      0.157850000000     0.797090000000     0.096010000000    -0.0739755  
C445     C      0.296110000000     0.872640000000     0.853580000000    -0.0740233  
C446     C      0.308260000000     0.901950000000     0.874280000000     0.0251249  
C447     C      0.289480000000     0.915760000000     0.876720000000    -0.0737684  
C448     C      0.259280000000     0.900550000000     0.859270000000     0.0364021  
C449     C      0.247000000000     0.871040000000     0.839270000000    -0.133817   
C450     C      0.265810000000     0.857320000000     0.836470000000     0.0360165  
C451     C      0.340310000000     0.917960000000     0.893400000000     0.0250257  
C452     C      0.352120000000     0.900860000000     0.915220000000    -0.0740117  
C453     C      0.382400000000     0.915790000000     0.932370000000     0.0358552  
C454     C      0.401540000000     0.948210000000     0.928490000000    -0.133755   
C455     C      0.389610000000     0.965410000000     0.907380000000     0.0361414  
C456     C      0.359410000000     0.950450000000     0.889890000000    -0.0736526  
C457     C      0.803420000000     0.683710000000     0.831870000000    -0.0742951  
C458     C      0.798820000000     0.658510000000     0.858890000000     0.0250536  
C459     C      0.795290000000     0.631500000000     0.838080000000    -0.0739729  
C460     C      0.797620000000     0.630190000000     0.791450000000     0.0361774  
C461     C      0.803430000000     0.655850000000     0.764520000000    -0.133693   
C462     C      0.805600000000     0.682370000000     0.785180000000     0.0358282  
C463     C      0.800010000000     0.661100000000     0.908650000000     0.0249336  
C464     C      0.823280000000     0.688190000000     0.929570000000    -0.0738727  
C465     C      0.826750000000     0.689520000000     0.976240000000     0.036102   
C466     C      0.806940000000     0.663820000000     0.003090000000    -0.133533   
C467     C      0.782780000000     0.637220000000     0.982320000000     0.0355411  
C468     C      0.779420000000     0.635850000000     0.935590000000    -0.0741786  
C469     C      0.856000000000     0.687680000000     0.335530000000    -0.0735993  
C470     C      0.849270000000     0.660210000000     0.358690000000     0.0252534  
C471     C      0.841000000000     0.633150000000     0.333270000000    -0.0736125  
C472     C      0.837900000000     0.633190000000     0.286550000000     0.0377781  
C473     C      0.844130000000     0.660520000000     0.264020000000    -0.135203   
C474     C      0.853900000000     0.687910000000     0.288750000000     0.0377687  
C475     C      0.849030000000     0.659410000000     0.408990000000     0.0252549  
C476     C      0.867950000000     0.686470000000     0.434310000000    -0.0736261  
C477     C      0.865080000000     0.686450000000     0.481070000000     0.0378469  
C478     C      0.844120000000     0.659140000000     0.503720000000    -0.135229   
C479     C      0.826390000000     0.631720000000     0.479080000000     0.0376535  
C480     C      0.828460000000     0.631940000000     0.432270000000    -0.0735651  
C481     C      0.692730000000     0.617160000000     0.556200000000    -0.0736699  
C482     C      0.673650000000     0.584670000000     0.559750000000     0.0249776  
C483     C      0.685540000000     0.567590000000     0.581430000000    -0.0739417  
C484     C      0.715860000000     0.582540000000     0.598460000000     0.0356935  
C485     C      0.734950000000     0.614980000000     0.594590000000    -0.133676   
C486     C      0.722950000000     0.632140000000     0.573580000000     0.0361648  
C487     C      0.641550000000     0.568660000000     0.540820000000     0.025148   
C488     C      0.622810000000     0.582490000000     0.543420000000    -0.0738112  
C489     C      0.592580000000     0.567320000000     0.526070000000     0.036451   
C490     C      0.580240000000     0.537830000000     0.506020000000    -0.133781   
C491     C      0.599000000000     0.524060000000     0.503100000000     0.0359915  
C492     C      0.629330000000     0.539340000000     0.520110000000    -0.0739894  
C493     C      0.961930000000     0.701370000000     0.688000000000    -0.0733596  
C494     C      0.974760000000     0.731050000000     0.707860000000     0.0256038  
C495     C      0.956250000000     0.745160000000     0.710510000000    -0.074078   
C496     C      0.926020000000     0.730270000000     0.693360000000     0.0366372  
C497     C      0.913220000000     0.700600000000     0.673850000000    -0.133707   
C498     C      0.931410000000     0.686200000000     0.671540000000     0.0362093  
C499     C      0.007260000000     0.747390000000     0.725620000000     0.0246352  
C500     C      0.020170000000     0.730690000000     0.745750000000    -0.0732915  
C501     C      0.050670000000     0.746200000000     0.762260000000     0.0364     
C502     C      0.068780000000     0.778790000000     0.759720000000    -0.133993   
C503     C      0.055880000000     0.795510000000     0.739980000000     0.0365805  
C504     C      0.025660000000     0.780010000000     0.722780000000    -0.0738358  
H1       H      0.763030000000     0.967670000000     0.707380000000     0.0457699  
H2       H      0.737630000000     0.915310000000     0.737720000000     0.0278919  
H3       H      0.659080000000     0.924570000000     0.778260000000     0.0283734  
H4       H      0.685270000000     0.977940000000     0.749990000000     0.0467926  
H5       H      0.701010000000     0.009390000000     0.685320000000     0.0464238  
H6       H      0.728200000000     0.062760000000     0.657050000000     0.0283321  
H7       H      0.815960000000     0.071910000000     0.697740000000     0.0278834  
H8       H      0.788980000000     0.019550000000     0.728080000000     0.0454029  
H9       H      0.875180000000     0.342110000000     0.517990000000     0.0455914  
H10      H      0.901990000000     0.395200000000     0.489320000000     0.0283899  
H11      H      0.990040000000     0.405440000000     0.531250000000     0.0294415  
H12      H      0.963180000000     0.352790000000     0.561350000000     0.0467316  
H13      H      0.935520000000     0.299490000000     0.540390000000     0.0467519  
H14      H      0.908430000000     0.246840000000     0.570540000000     0.0295679  
H15      H      0.833430000000     0.260780000000     0.615430000000     0.0283777  
H16      H      0.861040000000     0.313830000000     0.586710000000     0.045653   
H17      H      0.129630000000     0.686380000000     0.393350000000     0.0455587  
H18      H      0.156100000000     0.738620000000     0.362190000000     0.0276898  
H19      H      0.067730000000     0.728340000000     0.322360000000     0.0281866  
H20      H      0.041130000000     0.675270000000     0.351390000000     0.0465404  
H21      H      0.026170000000     0.645380000000     0.417130000000     0.0464296  
H22      H      0.999590000000     0.592310000000     0.446140000000     0.0287497  
H23      H      0.077440000000     0.581660000000     0.406240000000     0.0277419  
H24      H      0.103320000000     0.633900000000     0.375090000000     0.0454869  
H25      H      0.540750000000     0.673470000000     0.848510000000     0.0455924  
H26      H      0.566210000000     0.726530000000     0.819830000000     0.0283877  
H27      H      0.655080000000     0.740350000000     0.864840000000     0.0295841  
H28      H      0.629510000000     0.687690000000     0.894940000000     0.0466875  
H29      H      0.603870000000     0.634400000000     0.873940000000     0.0466559  
H30      H      0.578080000000     0.581740000000     0.904010000000     0.0293271  
H31      H      0.500300000000     0.592060000000     0.945850000000     0.0283646  
H32      H      0.526590000000     0.645150000000     0.917210000000     0.0456069  
H33      H      0.195350000000     0.979110000000     0.251720000000     0.0457782  
H34      H      0.168490000000     0.925850000000     0.279830000000     0.0282874  
H35      H      0.245300000000     0.914380000000     0.236500000000     0.0292962  
H36      H      0.271620000000     0.967150000000     0.206920000000     0.0468066  
H37      H      0.298100000000     0.020120000000     0.228650000000     0.0464792  
H38      H      0.324530000000     0.072880000000     0.199060000000     0.0292444  
H39      H      0.236280000000     0.061470000000     0.155670000000     0.028253   
H40      H      0.209900000000     0.008220000000     0.183800000000     0.0454331  
H41      H      0.436780000000     0.300830000000     0.042040000000     0.0455767  
H42      H      0.411040000000     0.248610000000     0.073260000000     0.0276921  
H43      H      0.332990000000     0.258980000000     0.113010000000     0.0282178  
H44      H      0.359440000000     0.312030000000     0.083930000000     0.0466018  
H45      H      0.374350000000     0.341890000000     0.018160000000     0.0466317  
H46      H      0.400820000000     0.394950000000     0.989100000000     0.0282122  
H47      H      0.489300000000     0.405550000000     0.029050000000     0.0277265  
H48      H      0.462950000000     0.353320000000     0.060240000000     0.0455778  
H49      H      0.612420000000     0.764400000000     0.513960000000     0.0456309  
H50      H      0.614840000000     0.770510000000     0.432470000000     0.0286423  
H51      H      0.707990000000     0.849320000000     0.443820000000     0.0291822  
H52      H      0.705340000000     0.843380000000     0.525150000000     0.0463965  
H53      H      0.702140000000     0.809470000000     0.587920000000     0.045736   
H54      H      0.699690000000     0.813270000000     0.669380000000     0.0286676  
H55      H      0.606390000000     0.798540000000     0.657830000000     0.029129   
H56      H      0.609080000000     0.795140000000     0.576520000000     0.0464093  
H57      H      0.607870000000     0.816010000000     0.020610000000     0.0458376  
H58      H      0.607310000000     0.812520000000     0.939300000000     0.0260669  
H59      H      0.704570000000     0.882290000000     0.934820000000     0.0253372  
H60      H      0.704890000000     0.888190000000     0.016120000000     0.0454633  
H61      H      0.706210000000     0.865390000000     0.081060000000     0.0458857  
H62      H      0.706810000000     0.862360000000     0.162350000000     0.0260561  
H63      H      0.609380000000     0.834220000000     0.166960000000     0.0252475  
H64      H      0.609000000000     0.839890000000     0.085670000000     0.0454917  
H65      H      0.774290000000     0.791000000000     0.251860000000     0.0456189  
H66      H      0.748470000000     0.818110000000     0.281040000000     0.0284646  
H67      H      0.659700000000     0.742190000000     0.237470000000     0.0295632  
H68      H      0.685620000000     0.715560000000     0.206920000000     0.0467203  
H69      H      0.712280000000     0.688640000000     0.227370000000     0.0467226  
H70      H      0.738700000000     0.662480000000     0.196900000000     0.0295829  
H71      H      0.814930000000     0.751080000000     0.153390000000     0.0284499  
H72      H      0.788040000000     0.777140000000     0.182490000000     0.0456421  
H73      H      0.550930000000     0.861120000000     0.394500000000     0.0455934  
H74      H      0.576340000000     0.834210000000     0.363950000000     0.0278197  
H75      H      0.654810000000     0.922100000000     0.323440000000     0.0283787  
H76      H      0.628620000000     0.949200000000     0.351910000000     0.0467006  
H77      H      0.613130000000     0.964790000000     0.416810000000     0.0466677  
H78      H      0.586150000000     0.991110000000     0.445280000000     0.0284437  
H79      H      0.498170000000     0.912710000000     0.404930000000     0.0278339  
H80      H      0.524950000000     0.887170000000     0.374390000000     0.0455447  
H81      H      0.040410000000     0.526490000000     0.691850000000     0.0464325  
H82      H      0.041970000000     0.522240000000     0.610520000000     0.0291168  
H83      H      0.949170000000     0.509100000000     0.601170000000     0.0288951  
H84      H      0.947860000000     0.513750000000     0.682620000000     0.0458437  
H85      H      0.038470000000     0.558260000000     0.754140000000     0.0457626  
H86      H      0.036980000000     0.552980000000     0.835740000000     0.0287687  
H87      H      0.943120000000     0.475060000000     0.827170000000     0.0290945  
H88      H      0.944850000000     0.480170000000     0.745740000000     0.0464552  
H89      H      0.947590000000     0.431230000000     0.182350000000     0.0458154  
H90      H      0.949280000000     0.437270000000     0.100890000000     0.0286981  
H91      H      0.042330000000     0.516430000000     0.110870000000     0.029064   
H92      H      0.040400000000     0.510510000000     0.192240000000     0.0464895  
H93      H      0.037790000000     0.476230000000     0.254520000000     0.0457798  
H94      H      0.036030000000     0.479850000000     0.336110000000     0.0286455  
H95      H      0.942760000000     0.465480000000     0.326750000000     0.0290362  
H96      H      0.944750000000     0.462210000000     0.245310000000     0.0464753  
H97      H      0.960420000000     0.614460000000     0.018870000000     0.0466042  
H98      H      0.986840000000     0.587530000000     0.990780000000     0.0281768  
H99      H      0.908590000000     0.499510000000     0.031300000000     0.0277173  
H100     H      0.882900000000     0.526280000000     0.061530000000     0.0455617  
H101     H      0.856800000000     0.552290000000     0.041530000000     0.0455682  
H102     H      0.830030000000     0.577990000000     0.071630000000     0.0278517  
H103     H      0.918030000000     0.656500000000     0.111640000000     0.0282539  
H104     H      0.944980000000     0.630050000000     0.083640000000     0.0465426  
H105     H      0.371640000000     0.143110000000     0.921560000000     0.0456557  
H106     H      0.369930000000     0.146770000000     0.003150000000     0.0286972  
H107     H      0.276570000000     0.132160000000     0.993950000000     0.0289795  
H108     H      0.278510000000     0.128870000000     0.912510000000     0.0463788  
H109     H      0.281350000000     0.097990000000     0.849500000000     0.0456578  
H110     H      0.282980000000     0.104060000000     0.768050000000     0.0285885  
H111     H      0.376020000000     0.183240000000     0.777940000000     0.029042   
H112     H      0.374160000000     0.177300000000     0.859290000000     0.0464415  
H113     H      0.281610000000     0.180500000000     0.349680000000     0.0457914  
H114     H      0.282960000000     0.175880000000     0.268240000000     0.0288693  
H115     H      0.375800000000     0.189130000000     0.277660000000     0.0290636  
H116     H      0.374200000000     0.193340000000     0.358990000000     0.0463994  
H117     H      0.278590000000     0.146960000000     0.412810000000     0.0464131  
H118     H      0.276830000000     0.141850000000     0.494240000000     0.0290256  
H119     H      0.370680000000     0.219790000000     0.502870000000     0.0287415  
H120     H      0.372200000000     0.225070000000     0.421280000000     0.0457343  
H121     H      0.455450000000     0.111140000000     0.516310000000     0.0455682  
H122     H      0.482390000000     0.085170000000     0.487030000000     0.0284584  
H123     H      0.406930000000     0.996650000000     0.532250000000     0.03       
H124     H      0.380490000000     0.022720000000     0.562930000000     0.0465116  
H125     H      0.353300000000     0.049020000000     0.542670000000     0.0465694  
H126     H      0.327210000000     0.075450000000     0.573270000000     0.0292813  
H127     H      0.415980000000     0.152390000000     0.614640000000     0.028365   
H128     H      0.442020000000     0.125480000000     0.585440000000     0.0455416  
H129     H      0.020140000000     0.382610000000     0.875420000000     0.0464772  
H130     H      0.993920000000     0.408910000000     0.905960000000     0.0298089  
H131     H      0.082550000000     0.485920000000     0.947640000000     0.0283797  
H132     H      0.108720000000     0.459120000000     0.918510000000     0.0455252  
H133     H      0.122370000000     0.444770000000     0.849540000000     0.0455613  
H134     H      0.149320000000     0.418770000000     0.820380000000     0.0283297  
H135     H      0.073700000000     0.330260000000     0.865370000000     0.0295195  
H136     H      0.047270000000     0.356350000000     0.895940000000     0.0466016  
H137     H      0.294660000000     0.281680000000     0.685950000000     0.0465088  
H138     H      0.320910000000     0.254580000000     0.657880000000     0.0281695  
H139     H      0.242460000000     0.166710000000     0.698460000000     0.0276621  
H140     H      0.216940000000     0.193650000000     0.728670000000     0.0454982  
H141     H      0.191000000000     0.219800000000     0.708650000000     0.0455282  
H142     H      0.164370000000     0.245620000000     0.738790000000     0.0278546  
H143     H      0.252490000000     0.323990000000     0.778710000000     0.0281853  
H144     H      0.279300000000     0.297410000000     0.750670000000     0.0464653  
H145     H      0.458340000000     0.507230000000     0.689460000000     0.0464032  
H146     H      0.461780000000     0.512390000000     0.608030000000     0.0290884  
H147     H      0.477610000000     0.434360000000     0.599460000000     0.0287411  
H148     H      0.473770000000     0.429040000000     0.681050000000     0.0457702  
H149     H      0.427730000000     0.473640000000     0.752510000000     0.0457866  
H150     H      0.433650000000     0.478230000000     0.833970000000     0.0289329  
H151     H      0.513220000000     0.464930000000     0.824750000000     0.0291284  
H152     H      0.507460000000     0.460740000000     0.743410000000     0.0464123  
H153     H      0.509900000000     0.556100000000     0.252820000000     0.045789   
H154     H      0.505590000000     0.550100000000     0.334280000000     0.0286456  
H155     H      0.519590000000     0.470960000000     0.324400000000     0.0290353  
H156     H      0.523540000000     0.476840000000     0.243030000000     0.0464436  
H157     H      0.555130000000     0.511100000000     0.180720000000     0.0457755  
H158     H      0.549720000000     0.507430000000     0.099140000000     0.0286539  
H159     H      0.470790000000     0.521760000000     0.108430000000     0.0290591  
H160     H      0.476080000000     0.525080000000     0.189880000000     0.0464085  
H161     H      0.886290000000     0.177710000000     0.847520000000     0.0457787  
H162     H      0.880080000000     0.173940000000     0.766050000000     0.0286559  
H163     H      0.801550000000     0.188770000000     0.777470000000     0.0291153  
H164     H      0.807600000000     0.192130000000     0.858790000000     0.046347   
H165     H      0.841650000000     0.222820000000     0.921410000000     0.045629   
H166     H      0.837940000000     0.216680000000     0.002890000000     0.0287762  
H167     H      0.852270000000     0.137830000000     0.991560000000     0.0291712  
H168     H      0.855570000000     0.143790000000     0.910230000000     0.0463379  
H169     H      0.785540000000     0.171210000000     0.414700000000     0.0458648  
H170     H      0.788480000000     0.174730000000     0.496010000000     0.026037   
H171     H      0.816010000000     0.104940000000     0.500590000000     0.0252104  
H172     H      0.810420000000     0.099030000000     0.419290000000     0.0454506  
H173     H      0.834520000000     0.121820000000     0.354350000000     0.0458424  
H174     H      0.838150000000     0.124850000000     0.273060000000     0.0260326  
H175     H      0.768820000000     0.152960000000     0.268360000000     0.0252564  
H176     H      0.762780000000     0.147300000000     0.349640000000     0.0453956  
H177     H      0.094890000000     0.282680000000     0.588130000000     0.0456736  
H178     H      0.101190000000     0.284880000000     0.669590000000     0.0285939  
H179     H      0.180030000000     0.378040000000     0.658410000000     0.0290965  
H180     H      0.173900000000     0.375600000000     0.577110000000     0.0464005  
H181     H      0.139890000000     0.372590000000     0.514590000000     0.0456251  
H182     H      0.143670000000     0.370350000000     0.433080000000     0.0285787  
H183     H      0.128910000000     0.276990000000     0.444000000000     0.0290843  
H184     H      0.125540000000     0.279460000000     0.525320000000     0.0463684  
H185     H      0.170630000000     0.279500000000     0.016940000000     0.0453695  
H186     H      0.165100000000     0.279570000000     0.935590000000     0.0250902  
H187     H      0.192970000000     0.376970000000     0.939260000000     0.0259333  
H188     H      0.195830000000     0.376670000000     0.020580000000     0.0458393  
H189     H      0.218440000000     0.375670000000     0.085830000000     0.0454628  
H190     H      0.212410000000     0.375570000000     0.167090000000     0.0250985  
H191     H      0.142990000000     0.278170000000     0.163000000000     0.0258612  
H192     H      0.146590000000     0.278500000000     0.081730000000     0.0458481  
H193     H      0.976950000000     0.196230000000     0.183430000000     0.0457255  
H194     H      0.924010000000     0.169090000000     0.154340000000     0.0284738  
H195     H      0.911130000000     0.245030000000     0.197800000000     0.0295758  
H196     H      0.963710000000     0.271710000000     0.228260000000     0.0468879  
H197     H      0.017250000000     0.298630000000     0.207780000000     0.0465131  
H198     H      0.069840000000     0.324830000000     0.238180000000     0.029634   
H199     H      0.057640000000     0.236260000000     0.281690000000     0.0284554  
H200     H      0.004680000000     0.210170000000     0.252680000000     0.0453496  
H201     H      0.350270000000     0.461180000000     0.373650000000     0.0454883  
H202     H      0.402730000000     0.487940000000     0.403890000000     0.0277257  
H203     H      0.393020000000     0.399890000000     0.444360000000     0.0281887  
H204     H      0.339690000000     0.372990000000     0.416260000000     0.0465367  
H205     H      0.308630000000     0.357370000000     0.351550000000     0.0464245  
H206     H      0.255250000000     0.330920000000     0.323550000000     0.02823    
H207     H      0.245730000000     0.409460000000     0.363410000000     0.0278761  
H208     H      0.298190000000     0.435170000000     0.393520000000     0.0455285  
H209     H      0.529450000000     0.042730000000     0.687770000000     0.0458916  
H210     H      0.526490000000     0.043380000000     0.606460000000     0.0260221  
H211     H      0.498630000000     0.946010000000     0.601740000000     0.0252426  
H212     H      0.504240000000     0.945580000000     0.683030000000     0.045476   
H213     H      0.480260000000     0.944290000000     0.748040000000     0.0459002  
H214     H      0.476650000000     0.943640000000     0.829340000000     0.0259984  
H215     H      0.546120000000     0.041010000000     0.834080000000     0.0252295  
H216     H      0.552140000000     0.041430000000     0.752800000000     0.0454751  
H217     H      0.459290000000     0.945350000000     0.192320000000     0.0463803  
H218     H      0.462540000000     0.942580000000     0.110990000000     0.0291258  
H219     H      0.476950000000     0.035770000000     0.099320000000     0.0286654  
H220     H      0.473300000000     0.038310000000     0.180790000000     0.0456872  
H221     H      0.507400000000     0.041670000000     0.243470000000     0.0463629  
H222     H      0.513420000000     0.044450000000     0.324810000000     0.0291279  
H223     H      0.434710000000     0.951250000000     0.336430000000     0.028677   
H224     H      0.428530000000     0.948700000000     0.254950000000     0.0456606  
H225     H      0.631330000000     0.099900000000     0.061250000000     0.0454976  
H226     H      0.578990000000     0.074330000000     0.030820000000     0.0279086  
H227     H      0.588570000000     0.995900000000     0.990560000000     0.0287499  
H228     H      0.641890000000     0.022240000000     0.018900000000     0.0464448  
H229     H      0.673100000000     0.037910000000     0.083650000000     0.0465525  
H230     H      0.726420000000     0.065050000000     0.111980000000     0.0283119  
H231     H      0.735670000000     0.152900000000     0.071500000000     0.0278466  
H232     H      0.683320000000     0.125960000000     0.041080000000     0.0455375  
H233     H      0.143340000000     0.858430000000     0.522960000000     0.04642    
H234     H      0.138130000000     0.855160000000     0.441510000000     0.0289847  
H235     H      0.216800000000     0.840400000000     0.432400000000     0.0285795  
H236     H      0.222140000000     0.844020000000     0.513990000000     0.045754   
H237     H      0.190460000000     0.809860000000     0.576240000000     0.0464756  
H238     H      0.186370000000     0.803910000000     0.657590000000     0.0290312  
H239     H      0.172610000000     0.883190000000     0.667430000000     0.0286644  
H240     H      0.177060000000     0.889270000000     0.585990000000     0.045697   
H241     H      0.125260000000     0.840320000000     0.022610000000     0.0464467  
H242     H      0.128580000000     0.845400000000     0.941170000000     0.0290674  
H243     H      0.144480000000     0.767420000000     0.932640000000     0.0287194  
H244     H      0.140750000000     0.762170000000     0.014240000000     0.0458107  
H245     H      0.094770000000     0.806820000000     0.085770000000     0.0457653  
H246     H      0.100770000000     0.811460000000     0.167210000000     0.0288906  
H247     H      0.180330000000     0.798140000000     0.157840000000     0.0290914  
H248     H      0.174490000000     0.793910000000     0.076500000000     0.0463959  
H249     H      0.297850000000     0.938080000000     0.892960000000     0.0466712  
H250     H      0.245360000000     0.911700000000     0.862310000000     0.0293721  
H251     H      0.257140000000     0.834690000000     0.821050000000     0.0283618  
H252     H      0.310060000000     0.861550000000     0.850290000000     0.0456238  
H253     H      0.337900000000     0.875900000000     0.919360000000     0.0455997  
H254     H      0.390790000000     0.901850000000     0.948650000000     0.0283808  
H255     H      0.403800000000     0.990400000000     0.903500000000     0.029643   
H256     H      0.351310000000     0.964350000000     0.872790000000     0.0467124  
H257     H      0.792040000000     0.611800000000     0.857970000000     0.0463798  
H258     H      0.795740000000     0.609360000000     0.776680000000     0.0291257  
H259     H      0.809970000000     0.702520000000     0.765460000000     0.0286625  
H260     H      0.805860000000     0.704710000000     0.846920000000     0.0457066  
H261     H      0.839720000000     0.707930000000     0.909760000000     0.0464174  
H262     H      0.845550000000     0.710410000000     0.991100000000     0.0291812  
H263     H      0.767040000000     0.617030000000     0.001970000000     0.0286906  
H264     H      0.761030000000     0.614790000000     0.920450000000     0.045587   
H265     H      0.836510000000     0.611720000000     0.349300000000     0.0454412  
H266     H      0.830570000000     0.611820000000     0.268030000000     0.0251269  
H267     H      0.858470000000     0.709220000000     0.272090000000     0.0259742  
H268     H      0.861740000000     0.708890000000     0.353370000000     0.0458682  
H269     H      0.884780000000     0.707900000000     0.418180000000     0.0454703  
H270     H      0.879190000000     0.707830000000     0.499520000000     0.0251369  
H271     H      0.809750000000     0.610430000000     0.495840000000     0.0259623  
H272     H      0.812910000000     0.610720000000     0.414520000000     0.0458333  
H273     H      0.671360000000     0.542630000000     0.585570000000     0.0455793  
H274     H      0.724320000000     0.568630000000     0.614670000000     0.0283819  
H275     H      0.737110000000     0.657130000000     0.569690000000     0.0296066  
H276     H      0.684570000000     0.631040000000     0.539180000000     0.0466588  
H277     H      0.631230000000     0.604810000000     0.559690000000     0.0466458  
H278     H      0.578690000000     0.578510000000     0.529210000000     0.0293591  
H279     H      0.590280000000     0.501430000000     0.487650000000     0.02836    
H280     H      0.643260000000     0.528230000000     0.516700000000     0.0455915  
H281     H      0.964880000000     0.767600000000     0.726470000000     0.0457184  
H282     H      0.912450000000     0.741800000000     0.696280000000     0.0279521  
H283     H      0.922180000000     0.663370000000     0.656540000000     0.0282715  
H284     H      0.975550000000     0.689920000000     0.684620000000     0.046585   
H285     H      0.006640000000     0.705640000000     0.749310000000     0.0463112  
H286     H      0.059960000000     0.732690000000     0.777450000000     0.028176   
H287     H      0.069400000000     0.820610000000     0.736910000000     0.0277321  
H288     H      0.016960000000     0.793710000000     0.706630000000     0.0453552  
O1       O      0.833230000000     0.635630000000     0.576090000000    -0.546279   
O2       O      0.811970000000     0.633270000000     0.699060000000    -0.546403   
O3       O      0.780000000000     0.614260000000     0.621460000000    -0.545826   
O4       O      0.865570000000     0.654870000000     0.653770000000    -0.543192   
O5       O      0.867890000000     0.700980000000     0.648380000000    -0.548219   
O6       O      0.783220000000     0.660540000000     0.612410000000    -0.546177   
O7       O      0.813740000000     0.678980000000     0.691440000000    -0.546403   
O8       O      0.837670000000     0.682640000000     0.569370000000    -0.545385   
O9       O      0.147920000000     0.793780000000     0.857940000000    -0.546063   
O10      O      0.170240000000     0.812180000000     0.735090000000    -0.545998   
O11      O      0.201690000000     0.825200000000     0.813210000000    -0.545679   
O12      O      0.116350000000     0.780680000000     0.779830000000    -0.544463   
O13      O      0.114210000000     0.824560000000     0.785000000000    -0.547645   
O14      O      0.199020000000     0.868670000000     0.820480000000    -0.546505   
O15      O      0.168330000000     0.856100000000     0.741620000000    -0.547357   
O16      O      0.144820000000     0.837080000000     0.863930000000    -0.5475     
O17      O      0.478450000000     0.966230000000     0.033050000000    -0.546053   
O18      O      0.499710000000     0.968560000000     0.910020000000    -0.545862   
O19      O      0.532010000000     0.987610000000     0.987760000000    -0.543242   
O20      O      0.446480000000     0.947340000000     0.955410000000    -0.546076   
O21      O      0.449900000000     0.993700000000     0.946350000000    -0.545876   
O22      O      0.534540000000     0.033810000000     0.982470000000    -0.548011   
O23      O      0.504370000000     0.015670000000     0.903410000000    -0.545845   
O24      O      0.480400000000     0.012020000000     0.025430000000    -0.546745   
O25      O      0.145170000000     0.300950000000     0.366410000000    -0.546675   
O26      O      0.166290000000     0.303300000000     0.243390000000    -0.546424   
O27      O      0.198700000000     0.322520000000     0.320970000000    -0.543663   
O28      O      0.113100000000     0.281950000000     0.288910000000    -0.546104   
O29      O      0.116320000000     0.328240000000     0.279940000000    -0.54595    
O30      O      0.201050000000     0.368640000000     0.315640000000    -0.548013   
O31      O      0.170720000000     0.350310000000     0.236720000000    -0.545388   
O32      O      0.146970000000     0.346680000000     0.358880000000    -0.546128   
O33      O      0.815220000000     0.126830000000     0.192450000000    -0.54584    
O34      O      0.836440000000     0.145680000000     0.069410000000    -0.546053   
O35      O      0.868430000000     0.158940000000     0.147040000000    -0.545955   
O36      O      0.782900000000     0.113430000000     0.114720000000    -0.543661   
O37      O      0.780200000000     0.157010000000     0.119880000000    -0.548285   
O38      O      0.864840000000     0.201810000000     0.155910000000    -0.546042   
O39      O      0.834300000000     0.189430000000     0.076850000000    -0.54661    
O40      O      0.810410000000     0.169200000000     0.198920000000    -0.545695   
O41      O      0.503360000000     0.479150000000     0.401900000000    -0.546079   
O42      O      0.481070000000     0.460750000000     0.524760000000    -0.545993   
O43      O      0.449480000000     0.447770000000     0.446690000000    -0.544444   
O44      O      0.534840000000     0.492060000000     0.479990000000    -0.545658   
O45      O      0.532320000000     0.535610000000     0.487320000000    -0.54671    
O46      O      0.447490000000     0.491730000000     0.451930000000    -0.547636   
O47      O      0.478120000000     0.504130000000     0.530820000000    -0.547401   
O48      O      0.501600000000     0.523140000000     0.408500000000    -0.547599   
O49      O      0.172370000000     0.354130000000     0.736030000000    -0.54659    
O50      O      0.191280000000     0.351760000000     0.859020000000    -0.546374   
O51      O      0.204380000000     0.332520000000     0.781360000000    -0.543653   
O52      O      0.159410000000     0.373140000000     0.813600000000    -0.545976   
O53      O      0.116380000000     0.326860000000     0.822630000000    -0.546434   
O54      O      0.160630000000     0.286420000000     0.786730000000    -0.548501   
O55      O      0.148740000000     0.304760000000     0.865720000000    -0.545634   
O56      O      0.128470000000     0.308420000000     0.743620000000    -0.546473   
O57      O      0.351630000000     0.175010000000     0.700430000000    -0.546017   
O58      O      0.347750000000     0.193410000000     0.577560000000    -0.546337   
O59      O      0.329290000000     0.206550000000     0.655610000000    -0.544536   
O60      O      0.370070000000     0.161950000000     0.622360000000    -0.545689   
O61      O      0.323930000000     0.118510000000     0.615060000000    -0.546828   
O62      O      0.283280000000     0.162700000000     0.650400000000    -0.547929   
O63      O      0.301360000000     0.150140000000     0.571520000000    -0.547357   
O64      O      0.305810000000     0.131120000000     0.693870000000    -0.547444   
O65      O      0.014040000000     0.526650000000     0.910460000000    -0.546205   
O66      O      0.017940000000     0.508240000000     0.033330000000    -0.546258   
O67      O      0.036510000000     0.495330000000     0.955270000000    -0.545395   
O68      O      0.995440000000     0.539650000000     0.988510000000    -0.544217   
O69      O      0.949520000000     0.495700000000     0.983250000000    -0.548089   
O70      O      0.990460000000     0.451790000000     0.947910000000    -0.546388   
O71      O      0.972210000000     0.464260000000     0.026710000000    -0.547669   
O72      O      0.967730000000     0.483280000000     0.904380000000    -0.54744    
O73      O      0.681880000000     0.860350000000     0.242930000000    -0.545968   
O74      O      0.684290000000     0.841480000000     0.365970000000    -0.546144   
O75      O      0.703020000000     0.828250000000     0.288340000000    -0.546291   
O76      O      0.662970000000     0.873740000000     0.320660000000    -0.54354    
O77      O      0.616720000000     0.830150000000     0.315470000000    -0.548432   
O78      O      0.656610000000     0.785380000000     0.279450000000    -0.5463     
O79      O      0.638440000000     0.797730000000     0.358500000000    -0.546588   
O80      O      0.634740000000     0.817980000000     0.236430000000    -0.545775   
O81      O      0.856650000000     0.684100000000     0.191720000000    -0.54638    
O82      O      0.837870000000     0.686450000000     0.068680000000    -0.546589   
O83      O      0.824780000000     0.705420000000     0.146170000000    -0.546124   
O84      O      0.869870000000     0.664900000000     0.114140000000    -0.54384    
O85      O      0.826150000000     0.618770000000     0.119450000000    -0.54843    
O86      O      0.781760000000     0.659120000000     0.155110000000    -0.546252   
O87      O      0.794000000000     0.640710000000     0.076180000000    -0.546426   
O88      O      0.814120000000     0.637070000000     0.198360000000    -0.545301   
O89      O      0.505700000000     0.020800000000     0.402740000000    -0.545958   
O90      O      0.524630000000     0.018460000000     0.525790000000    -0.545949   
O91      O      0.537890000000     0.999410000000     0.448070000000    -0.543249   
O92      O      0.492610000000     0.039690000000     0.480360000000    -0.54559    
O93      O      0.449690000000     0.993320000000     0.489400000000    -0.545696   
O94      O      0.494240000000     0.953210000000     0.453350000000    -0.548503   
O95      O      0.482210000000     0.971360000000     0.532380000000    -0.546044   
O96      O      0.461890000000     0.975010000000     0.410350000000    -0.546691   
O97      O      0.301210000000     0.148540000000     0.071230000000    -0.546555   
O98      O      0.305320000000     0.170940000000     0.194020000000    -0.546647   
O99      O      0.324090000000     0.202460000000     0.115950000000    -0.544797   
O100     O      0.282480000000     0.117080000000     0.149290000000    -0.545838   
O101     O      0.328370000000     0.119230000000     0.156580000000    -0.547364   
O102     O      0.369850000000     0.204080000000     0.121290000000    -0.547906   
O103     O      0.351440000000     0.173460000000     0.200170000000    -0.547003   
O104     O      0.346810000000     0.149980000000     0.077770000000    -0.547038   
O105     O      0.479060000000     0.505400000000     0.031120000000    -0.54626    
O106     O      0.460830000000     0.483030000000     0.908290000000    -0.546357   
O107     O      0.448240000000     0.451500000000     0.986340000000    -0.544784   
O108     O      0.491620000000     0.536870000000     0.953080000000    -0.546243   
O109     O      0.535500000000     0.534980000000     0.945760000000    -0.546693   
O110     O      0.492500000000     0.450090000000     0.981010000000    -0.547509   
O111     O      0.504560000000     0.480720000000     0.902150000000    -0.546703   
O112     O      0.523350000000     0.504200000000     0.024550000000    -0.546697   
O113     O      0.128080000000     0.816390000000     0.241440000000    -0.546536   
O114     O      0.146360000000     0.838740000000     0.364250000000    -0.546652   
O115     O      0.159090000000     0.870230000000     0.286210000000    -0.545906   
O116     O      0.115330000000     0.784840000000     0.319500000000    -0.54459    
O117     O      0.159460000000     0.783190000000     0.314190000000    -0.548044   
O118     O      0.202820000000     0.868050000000     0.278940000000    -0.546983   
O119     O      0.190500000000     0.837270000000     0.357730000000    -0.547153   
O120     O      0.171660000000     0.813830000000     0.235320000000    -0.547034   
O121     O      0.971530000000     0.504220000000     0.526900000000    -0.546576   
O122     O      0.967390000000     0.481840000000     0.404080000000    -0.546473   
O123     O      0.948480000000     0.450370000000     0.482110000000    -0.545986   
O124     O      0.990460000000     0.535750000000     0.448870000000    -0.544515   
O125     O      0.036110000000     0.537120000000     0.454240000000    -0.547263   
O126     O      0.994230000000     0.452220000000     0.489470000000    -0.546216   
O127     O      0.012860000000     0.483010000000     0.410700000000    -0.547173   
O128     O      0.017530000000     0.506480000000     0.533090000000    -0.547231   
O129     O      0.809240000000     0.172810000000     0.699620000000    -0.54616    
O130     O      0.790270000000     0.151630000000     0.576590000000    -0.545618   
O131     O      0.776740000000     0.119290000000     0.654330000000    -0.543188   
O132     O      0.822620000000     0.204820000000     0.621990000000    -0.545861   
O133     O      0.865310000000     0.200940000000     0.613080000000    -0.546674   
O134     O      0.820180000000     0.116330000000     0.649120000000    -0.548674   
O135     O      0.832470000000     0.146540000000     0.570070000000    -0.545792   
O136     O      0.852830000000     0.170400000000     0.692130000000    -0.546653   
O137     O      0.632210000000     0.835660000000     0.858730000000    -0.545567   
O138     O      0.630020000000     0.814490000000     0.735710000000    -0.546148   
O139     O      0.611360000000     0.782470000000     0.813320000000    -0.54564    
O140     O      0.651050000000     0.868020000000     0.781010000000    -0.54321    
O141     O      0.697410000000     0.870910000000     0.786290000000    -0.548702   
O142     O      0.657900000000     0.786280000000     0.822300000000    -0.546411   
O143     O      0.675980000000     0.816830000000     0.743270000000    -0.546784   
O144     O      0.679470000000     0.840690000000     0.865320000000    -0.545729   
V1       V      0.822610000000     0.632660000000     0.637910000000     1.38409    
V2       V      0.825730000000     0.682630000000     0.630090000000     1.38897    
V3       V      0.159140000000     0.801200000000     0.796250000000     1.38323    
V4       V      0.156490000000     0.848340000000     0.803030000000     1.39029    
V5       V      0.489070000000     0.965570000000     0.971870000000     1.38403    
V6       V      0.492400000000     0.015640000000     0.964100000000     1.38851    
V7       V      0.155730000000     0.300330000000     0.305230000000     1.38499    
V8       V      0.158860000000     0.350310000000     0.297480000000     1.38832    
V9       V      0.825850000000     0.134460000000     0.130610000000     1.38371    
V10      V      0.822330000000     0.181100000000     0.138200000000     1.38943    
V11      V      0.492270000000     0.468170000000     0.463060000000     1.38331    
V12      V      0.489790000000     0.515400000000     0.469920000000     1.3905     
V13      V      0.183630000000     0.354740000000     0.797190000000     1.3845     
V14      V      0.136810000000     0.304770000000     0.804990000000     1.38926    
V15      V      0.351540000000     0.185990000000     0.639250000000     1.38368    
V16      V      0.301750000000     0.138880000000     0.632440000000     1.39063    
V17      V      0.017830000000     0.519230000000     0.972170000000     1.3823     
V18      V      0.968140000000     0.472020000000     0.965290000000     1.39135    
V19      V      0.684900000000     0.852710000000     0.304770000000     1.38423    
V20      V      0.634780000000     0.806070000000     0.297150000000     1.38943    
V21      V      0.849050000000     0.687060000000     0.129870000000     1.3853     
V22      V      0.802260000000     0.637070000000     0.137590000000     1.38872    
V23      V      0.516970000000     0.021440000000     0.463940000000     1.38243    
V24      V      0.470270000000     0.971380000000     0.471690000000     1.39045    
V25      V      0.301430000000     0.159680000000     0.132360000000     1.38501    
V26      V      0.350950000000     0.161750000000     0.139240000000     1.39007    
V27      V      0.468170000000     0.494270000000     0.969960000000     1.38532    
V28      V      0.515740000000     0.492440000000     0.963080000000     1.38896    
V29      V      0.135450000000     0.827630000000     0.303110000000     1.38483    
V30      V      0.182870000000     0.825510000000     0.296260000000     1.39009    
V31      V      0.967630000000     0.492980000000     0.465230000000     1.38562    
V32      V      0.017000000000     0.494770000000     0.472160000000     1.3882     
V33      V      0.797970000000     0.162250000000     0.638430000000     1.38332    
V34      V      0.844430000000     0.158430000000     0.630780000000     1.39039    
V35      V      0.629300000000     0.825050000000     0.796890000000     1.38308    
V36      V      0.679540000000     0.828800000000     0.804610000000     1.3902     


