data_structure

_audit_creation_method RASPA-1.0
_audit_creation_date 2023-5-22
_audit_author_name 'Poobodin Mano'

_cell_length_a    45.4505
_cell_length_b    45.4508
_cell_length_c    30.3369
_cell_angle_alpha 89.9998
_cell_angle_beta  90
_cell_angle_gamma 90
_cell_volume      62668.8

_symmetry_cell_setting          triclinic
_symmetry_space_group_name_Hall 'P 1'
_symmetry_space_group_name_H-M  'P 1'
_symmetry_Int_Tables_number     1

_symmetry_equiv_pos_as_xyz 'x,y,z'

loop_
_atom_site_label
_atom_site_type_symbol
_atom_site_fract_x
_atom_site_fract_y
_atom_site_fract_z
_atom_site_charge
C1       C      0.269720000000     0.991750000000     0.991630000000     0.431629   
C2       C      0.380990000000     0.992940000000     0.991220000000     0.431852   
C3       C      0.325250000000     0.992500000000     0.908060000000     0.431752   
C4       C      0.325450000000     0.992210000000     0.074780000000     0.431425   
C5       C      0.269720000000     0.992950000000     0.491190000000     0.4317     
C6       C      0.380990000000     0.991880000000     0.491650000000     0.431564   
C7       C      0.325460000000     0.992550000000     0.408060000000     0.431527   
C8       C      0.325240000000     0.992280000000     0.574780000000     0.431824   
C9       C      0.992040000000     0.713910000000     0.991640000000     0.432003   
C10      C      0.991980000000     0.602640000000     0.991650000000     0.431734   
C11      C      0.992110000000     0.658320000000     0.908290000000     0.431825   
C12      C      0.991930000000     0.658320000000     0.075010000000     0.43182    
C13      C      0.992180000000     0.715150000000     0.491630000000     0.431835   
C14      C      0.992020000000     0.603880000000     0.491670000000     0.432102   
C15      C      0.992290000000     0.659490000000     0.408290000000     0.431754   
C16      C      0.991890000000     0.659520000000     0.575010000000     0.431842   
C17      C      0.714710000000     0.992210000000     0.991550000000     0.431881   
C18      C      0.603440000000     0.992860000000     0.991900000000     0.431734   
C19      C      0.658980000000     0.992360000000     0.908370000000     0.431533   
C20      C      0.659210000000     0.992650000000     0.075090000000     0.431484   
C21      C      0.714710000000     0.992170000000     0.491900000000     0.431887   
C22      C      0.603440000000     0.991770000000     0.491550000000     0.432012   
C23      C      0.659220000000     0.991860000000     0.408360000000     0.431846   
C24      C      0.658980000000     0.992150000000     0.575080000000     0.431688   
C25      C      0.047840000000     0.991240000000     0.991810000000     0.434118   
C26      C      0.936580000000     0.991490000000     0.991550000000     0.434428   
C27      C      0.992300000000     0.047020000000     0.991670000000     0.434016   
C28      C      0.992110000000     0.935760000000     0.991670000000     0.434366   
C29      C      0.047840000000     0.992930000000     0.491160000000     0.434235   
C30      C      0.936580000000     0.992490000000     0.491550000000     0.43458    
C31      C      0.992010000000     0.048300000000     0.491370000000     0.434594   
C32      C      0.992400000000     0.937050000000     0.491360000000     0.434618   
C33      C      0.992010000000     0.268910000000     0.991560000000     0.431919   
C34      C      0.991920000000     0.380180000000     0.991560000000     0.431605   
C35      C      0.991760000000     0.324550000000     0.908210000000     0.431794   
C36      C      0.992160000000     0.324550000000     0.074920000000     0.431743   
C37      C      0.991880000000     0.270150000000     0.491550000000     0.431648   
C38      C      0.991890000000     0.381420000000     0.491580000000     0.431737   
C39      C      0.991800000000     0.325740000000     0.408200000000     0.431709   
C40      C      0.991980000000     0.325730000000     0.574920000000     0.431811   
C41      C      0.966440000000     0.333160000000     0.789860000000    -0.0737148  
C42      C      0.991790000000     0.325020000000     0.766130000000     0.0226564  
C43      C      0.017070000000     0.316640000000     0.789790000000    -0.0714122  
C44      C      0.017080000000     0.316630000000     0.835850000000     0.0389481  
C45      C      0.991700000000     0.324620000000     0.859420000000    -0.136445   
C46      C      0.966340000000     0.332770000000     0.835930000000     0.0364449  
C47      C      0.991850000000     0.325240000000     0.717000000000     0.0226303  
C48      C      0.966570000000     0.317060000000     0.693180000000    -0.0738633  
C49      C      0.966580000000     0.317410000000     0.647120000000     0.0364578  
C50      C      0.991970000000     0.325570000000     0.623710000000    -0.136368   
C51      C      0.017320000000     0.333560000000     0.647360000000     0.0388544  
C52      C      0.017200000000     0.333580000000     0.693440000000    -0.0711405  
C53      C      0.017420000000     0.333190000000     0.193300000000    -0.0711899  
C54      C      0.992070000000     0.325030000000     0.217000000000     0.0226599  
C55      C      0.966810000000     0.316630000000     0.193320000000    -0.0738681  
C56      C      0.966820000000     0.316610000000     0.147260000000     0.0364871  
C57      C      0.992200000000     0.324620000000     0.123710000000    -0.13639    
C58      C      0.017540000000     0.332800000000     0.147220000000     0.0389144  
C59      C      0.991980000000     0.325250000000     0.266130000000     0.0226475  
C60      C      0.017250000000     0.317090000000     0.289970000000    -0.071365   
C61      C      0.017230000000     0.317440000000     0.336030000000     0.0388603  
C62      C      0.991810000000     0.325590000000     0.359420000000    -0.136465   
C63      C      0.966480000000     0.333560000000     0.335740000000     0.0364867  
C64      C      0.966620000000     0.333580000000     0.289670000000    -0.0736742  
C65      C      0.982260000000     0.127270000000     0.528620000000    -0.0745585  
C66      C      0.991870000000     0.142940000000     0.491410000000     0.022891   
C67      C      0.001500000000     0.127320000000     0.454170000000    -0.0719864  
C68      C      0.001300000000     0.096570000000     0.454010000000     0.0396581  
C69      C      0.991930000000     0.080840000000     0.491370000000    -0.137229   
C70      C      0.982520000000     0.096520000000     0.528740000000     0.0369707  
C71      C      0.991870000000     0.175520000000     0.491450000000     0.0228155  
C72      C      0.966740000000     0.191160000000     0.504730000000    -0.0743954  
C73      C      0.966650000000     0.221910000000     0.504420000000     0.036765   
C74      C      0.991870000000     0.237610000000     0.491520000000    -0.136595   
C75      C      0.017090000000     0.221920000000     0.478590000000     0.039223   
C76      C      0.017000000000     0.191160000000     0.478210000000    -0.0718946  
C77      C      0.001900000000     0.126030000000     0.954450000000    -0.0718534  
C78      C      0.992200000000     0.141670000000     0.991630000000     0.0227449  
C79      C      0.982560000000     0.126020000000     0.028840000000    -0.0744031  
C80      C      0.982830000000     0.095270000000     0.029000000000     0.0368409  
C81      C      0.992290000000     0.079570000000     0.991670000000    -0.136973   
C82      C      0.001710000000     0.095270000000     0.954320000000     0.0394536  
C83      C      0.992140000000     0.174260000000     0.991600000000     0.0227763  
C84      C      0.017250000000     0.189940000000     0.978330000000    -0.0719281  
C85      C      0.017290000000     0.220690000000     0.978660000000     0.0392524  
C86      C      0.992050000000     0.236360000000     0.991560000000    -0.136677   
C87      C      0.966850000000     0.220620000000     0.004480000000     0.0367986  
C88      C      0.966990000000     0.189870000000     0.004840000000    -0.0743505  
C89      C      0.857520000000     0.002060000000     0.454600000000    -0.0721604  
C90      C      0.841940000000     0.992410000000     0.491850000000     0.0228775  
C91      C      0.857640000000     0.982760000000     0.529010000000    -0.0747803  
C92      C      0.888400000000     0.983010000000     0.529050000000     0.0369008  
C93      C      0.904040000000     0.992440000000     0.491650000000    -0.137761   
C94      C      0.888270000000     0.001850000000     0.454350000000     0.0396301  
C95      C      0.809360000000     0.992370000000     0.491940000000     0.0226844  
C96      C      0.793660000000     0.017480000000     0.478710000000    -0.0719647  
C97      C      0.762910000000     0.017510000000     0.479070000000     0.0392107  
C98      C      0.747260000000     0.992260000000     0.491970000000    -0.136631   
C99      C      0.763010000000     0.967070000000     0.504880000000     0.0367075  
C100     C      0.793760000000     0.967210000000     0.505210000000    -0.0744111  
C101     C      0.667160000000     0.966920000000     0.693510000000    -0.0739273  
C102     C      0.658890000000     0.992250000000     0.717160000000     0.0226519  
C103     C      0.650670000000     0.017560000000     0.693430000000    -0.0712113  
C104     C      0.650890000000     0.017600000000     0.647360000000     0.0389308  
C105     C      0.658960000000     0.992210000000     0.623870000000    -0.136413   
C106     C      0.667010000000     0.966860000000     0.647450000000     0.0364772  
C107     C      0.658890000000     0.992260000000     0.766290000000     0.0226159  
C108     C      0.650600000000     0.966970000000     0.790020000000    -0.0737291  
C109     C      0.650820000000     0.966930000000     0.836090000000     0.0364399  
C110     C      0.658960000000     0.992290000000     0.859580000000    -0.136327   
C111     C      0.667070000000     0.017640000000     0.836010000000     0.0387748  
C112     C      0.667220000000     0.017570000000     0.789940000000    -0.0713506  
C113     C      0.651050000000     0.966780000000     0.289830000000    -0.0736796  
C114     C      0.659320000000     0.992170000000     0.266290000000     0.0226639  
C115     C      0.667620000000     0.017390000000     0.290140000000    -0.0714808  
C116     C      0.667430000000     0.017300000000     0.336200000000     0.0390454  
C117     C      0.659320000000     0.991880000000     0.359580000000    -0.136596   
C118     C      0.651250000000     0.966580000000     0.335900000000     0.0365053  
C119     C      0.659310000000     0.992340000000     0.217160000000     0.0226175  
C120     C      0.667550000000     0.967090000000     0.193310000000    -0.0738921  
C121     C      0.667360000000     0.967180000000     0.147250000000     0.0364843  
C122     C      0.659320000000     0.992620000000     0.123870000000    -0.136354   
C123     C      0.651310000000     0.017950000000     0.147550000000     0.0388371  
C124     C      0.651110000000     0.017750000000     0.193630000000    -0.0711365  
C125     C      0.857620000000     0.001270000000     0.954200000000    -0.0720635  
C126     C      0.841930000000     0.991660000000     0.991380000000     0.0227365  
C127     C      0.857530000000     0.981970000000     0.028610000000    -0.0746507  
C128     C      0.888280000000     0.982140000000     0.028800000000     0.0369169  
C129     C      0.904030000000     0.991530000000     0.991480000000    -0.137655   
C130     C      0.888380000000     0.000980000000     0.954100000000     0.0395243  
C131     C      0.809350000000     0.991780000000     0.991370000000     0.0226843  
C132     C      0.793810000000     0.016970000000     0.978130000000    -0.071965   
C133     C      0.763060000000     0.017200000000     0.978520000000     0.0392279  
C134     C      0.747250000000     0.992050000000     0.991450000000    -0.136748   
C135     C      0.762850000000     0.966750000000     0.004330000000     0.0367124  
C136     C      0.793610000000     0.966710000000     0.004630000000    -0.0743347  
C137     C      0.966640000000     0.524880000000     0.479230000000    -0.0737498  
C138     C      0.991930000000     0.509050000000     0.491650000000     0.0226915  
C139     C      0.017240000000     0.524840000000     0.504100000000    -0.0712723  
C140     C      0.017320000000     0.555580000000     0.503830000000     0.0390221  
C141     C      0.991980000000     0.571320000000     0.491680000000    -0.136581   
C142     C      0.966610000000     0.555630000000     0.479530000000     0.0365096  
C143     C      0.991920000000     0.476250000000     0.491620000000     0.022697   
C144     C      0.966590000000     0.460440000000     0.503960000000    -0.0737767  
C145     C      0.966530000000     0.429700000000     0.503660000000     0.0364892  
C146     C      0.991900000000     0.413980000000     0.491590000000    -0.136486   
C147     C      0.017270000000     0.429690000000     0.479520000000     0.0389907  
C148     C      0.017230000000     0.460440000000     0.479260000000    -0.0712806  
C149     C      0.967180000000     0.794190000000     0.478270000000    -0.0743918  
C150     C      0.992350000000     0.809800000000     0.491490000000     0.0226792  
C151     C      0.017450000000     0.794120000000     0.504760000000    -0.0719083  
C152     C      0.017480000000     0.763370000000     0.504470000000     0.0391395  
C153     C      0.992230000000     0.747700000000     0.491590000000    -0.136595   
C154     C      0.967040000000     0.763440000000     0.478670000000     0.0366879  
C155     C      0.992400000000     0.842390000000     0.491430000000     0.022823   
C156     C      0.982740000000     0.858030000000     0.454220000000    -0.0747283  
C157     C      0.982990000000     0.888780000000     0.454040000000     0.0368164  
C158     C      0.992450000000     0.904500000000     0.491360000000    -0.137602   
C159     C      0.001900000000     0.888800000000     0.528710000000     0.039527   
C160     C      0.002100000000     0.858050000000     0.528600000000    -0.0721473  
C161     C      0.966620000000     0.523630000000     0.979290000000    -0.0737832  
C162     C      0.991930000000     0.507810000000     0.991630000000     0.0226661  
C163     C      0.017260000000     0.523600000000     0.003990000000    -0.0711974  
C164     C      0.017330000000     0.554350000000     0.003720000000     0.0389863  
C165     C      0.991960000000     0.570080000000     0.991650000000    -0.13651    
C166     C      0.966580000000     0.554380000000     0.979580000000     0.0364732  
C167     C      0.991920000000     0.475010000000     0.991600000000     0.0225721  
C168     C      0.966610000000     0.459200000000     0.004010000000    -0.0736564  
C169     C      0.966560000000     0.428450000000     0.003720000000     0.0365077  
C170     C      0.991910000000     0.412750000000     0.991560000000    -0.13638    
C171     C      0.017270000000     0.428450000000     0.979410000000     0.0388761  
C172     C      0.017220000000     0.459200000000     0.979150000000    -0.0711793  
C173     C      0.017330000000     0.650450000000     0.789780000000    -0.0712646  
C174     C      0.991980000000     0.658820000000     0.766220000000     0.0226707  
C175     C      0.966710000000     0.667010000000     0.790040000000    -0.073935   
C176     C      0.966720000000     0.666650000000     0.836100000000     0.0364964  
C177     C      0.992110000000     0.658470000000     0.859510000000    -0.136544   
C178     C      0.017440000000     0.650470000000     0.835850000000     0.0390504  
C179     C      0.991920000000     0.659040000000     0.717080000000     0.0226296  
C180     C      0.017210000000     0.667400000000     0.693430000000    -0.0713966  
C181     C      0.017220000000     0.667410000000     0.647370000000     0.038958   
C182     C      0.991830000000     0.659450000000     0.623790000000    -0.136552   
C183     C      0.966470000000     0.651310000000     0.647280000000     0.036488   
C184     C      0.966570000000     0.650920000000     0.693350000000    -0.0737118  
C185     C      0.966940000000     0.667440000000     0.289900000000    -0.0738667  
C186     C      0.992200000000     0.659020000000     0.266220000000     0.0226214  
C187     C      0.017550000000     0.650840000000     0.289920000000    -0.0712077  
C188     C      0.017670000000     0.651230000000     0.335990000000     0.0389687  
C189     C      0.992340000000     0.659420000000     0.359510000000    -0.136447   
C190     C      0.966950000000     0.667450000000     0.335950000000     0.0364152  
C191     C      0.992110000000     0.658800000000     0.217080000000     0.0226752  
C192     C      0.966740000000     0.650490000000     0.193550000000    -0.0737578  
C193     C      0.966610000000     0.650520000000     0.147470000000     0.0365057  
C194     C      0.991950000000     0.658480000000     0.123790000000    -0.136565   
C195     C      0.017360000000     0.666600000000     0.147180000000     0.0390035  
C196     C      0.017390000000     0.666950000000     0.193240000000    -0.0714203  
C197     C      0.966930000000     0.792910000000     0.978390000000    -0.0744132  
C198     C      0.992070000000     0.808540000000     0.991640000000     0.0226636  
C199     C      0.017200000000     0.792890000000     0.004890000000    -0.0718677  
C200     C      0.017280000000     0.762140000000     0.004540000000     0.0393179  
C201     C      0.992050000000     0.746450000000     0.991640000000    -0.136809   
C202     C      0.966830000000     0.762160000000     0.978730000000     0.0367258  
C203     C      0.992070000000     0.841120000000     0.991650000000     0.0227499  
C204     C      0.982440000000     0.856770000000     0.954440000000    -0.0746789  
C205     C      0.982670000000     0.887520000000     0.954300000000     0.0368079  
C206     C      0.992080000000     0.903220000000     0.991670000000    -0.137684   
C207     C      0.001480000000     0.887510000000     0.029030000000     0.039618   
C208     C      0.001700000000     0.856760000000     0.028870000000    -0.0720214  
C209     C      0.459930000000     0.966160000000     0.479610000000    -0.0736346  
C210     C      0.475820000000     0.991500000000     0.491710000000     0.022688   
C211     C      0.460080000000     0.016870000000     0.503990000000    -0.0713118  
C212     C      0.429340000000     0.017010000000     0.503750000000     0.0390071  
C213     C      0.413550000000     0.991660000000     0.491820000000    -0.136345   
C214     C      0.429170000000     0.966190000000     0.479950000000     0.0364395  
C215     C      0.508610000000     0.991500000000     0.491510000000     0.0226771  
C216     C      0.524480000000     0.966250000000     0.504000000000    -0.0737236  
C217     C      0.555240000000     0.966270000000     0.503700000000     0.0364404  
C218     C      0.570880000000     0.991660000000     0.491460000000    -0.136534   
C219     C      0.555110000000     0.016940000000     0.479170000000     0.0390202  
C220     C      0.524370000000     0.016800000000     0.478900000000    -0.0712187  
C221     C      0.190640000000     0.968330000000     0.477290000000    -0.0743925  
C222     C      0.175070000000     0.993450000000     0.490780000000     0.0227307  
C223     C      0.190810000000     0.018460000000     0.504330000000    -0.0717744  
C224     C      0.221570000000     0.018430000000     0.504070000000     0.0391048  
C225     C      0.237170000000     0.993200000000     0.490960000000    -0.136492   
C226     C      0.221380000000     0.968110000000     0.477710000000     0.0366212  
C227     C      0.142490000000     0.993500000000     0.490800000000     0.0228424  
C228     C      0.126830000000     0.983900000000     0.453570000000    -0.0745241  
C229     C      0.096080000000     0.983960000000     0.453550000000     0.0367924  
C230     C      0.080390000000     0.993150000000     0.491040000000    -0.136951   
C231     C      0.096100000000     0.002580000000     0.528380000000     0.0394628  
C232     C      0.126860000000     0.002970000000     0.528120000000    -0.0718774  
C233     C      0.524310000000     0.967970000000     0.004390000000    -0.0737081  
C234     C      0.508610000000     0.993290000000     0.991730000000     0.0226326  
C235     C      0.524530000000     0.018520000000     0.979300000000    -0.0712655  
C236     C      0.555290000000     0.018450000000     0.979680000000     0.0389477  
C237     C      0.570880000000     0.993040000000     0.991950000000    -0.136523   
C238     C      0.555050000000     0.967790000000     0.004200000000     0.036605   
C239     C      0.475810000000     0.993320000000     0.991380000000     0.0226856  
C240     C      0.460080000000     0.967950000000     0.979030000000    -0.0739181  
C241     C      0.429350000000     0.967830000000     0.979180000000     0.0366881  
C242     C      0.413550000000     0.993180000000     0.991090000000    -0.136595   
C243     C      0.429150000000     0.018640000000     0.003010000000     0.0391115  
C244     C      0.459920000000     0.018660000000     0.003430000000    -0.0711518  
C245     C      0.316920000000     0.967010000000     0.693200000000    -0.0737935  
C246     C      0.325140000000     0.992360000000     0.716850000000     0.0226782  
C247     C      0.333420000000     0.017650000000     0.693120000000    -0.0714409  
C248     C      0.333270000000     0.017650000000     0.647060000000     0.0390727  
C249     C      0.325230000000     0.992260000000     0.623560000000    -0.1366     
C250     C      0.317150000000     0.966910000000     0.647120000000     0.0365193  
C251     C      0.325150000000     0.992420000000     0.765990000000     0.0226609  
C252     C      0.316900000000     0.017760000000     0.789640000000    -0.0712923  
C253     C      0.317130000000     0.017860000000     0.835720000000     0.0389668  
C254     C      0.325240000000     0.992520000000     0.859280000000    -0.136467   
C255     C      0.333310000000     0.967130000000     0.835770000000     0.0364629  
C256     C      0.333450000000     0.967140000000     0.789710000000    -0.0738298  
C257     C      0.317240000000     0.017610000000     0.193110000000    -0.0713913  
C258     C      0.325550000000     0.992340000000     0.216850000000     0.0226609  
C259     C      0.333790000000     0.966990000000     0.193220000000    -0.0737076  
C260     C      0.333560000000     0.966870000000     0.147140000000     0.0364633  
C261     C      0.325450000000     0.992200000000     0.123560000000    -0.136382   
C262     C      0.317380000000     0.017590000000     0.147050000000     0.0389393  
C263     C      0.325550000000     0.992420000000     0.265990000000     0.0226746  
C264     C      0.333770000000     0.017780000000     0.289620000000    -0.071209   
C265     C      0.333540000000     0.017900000000     0.335700000000     0.0389916  
C266     C      0.325470000000     0.992560000000     0.359280000000    -0.136432   
C267     C      0.317430000000     0.967160000000     0.335790000000     0.036534   
C268     C      0.317280000000     0.967140000000     0.289740000000    -0.0739283  
C269     C      0.126860000000     0.981440000000     0.954750000000    -0.0744496  
C270     C      0.142490000000     0.990960000000     0.992050000000     0.0227468  
C271     C      0.126820000000     0.000510000000     0.029290000000    -0.0718096  
C272     C      0.096070000000     0.000360000000     0.029360000000     0.0395677  
C273     C      0.080390000000     0.991110000000     0.991900000000    -0.137043   
C274     C      0.096110000000     0.981740000000     0.954540000000     0.0368067  
C275     C      0.175070000000     0.991080000000     0.992030000000     0.0227132  
C276     C      0.190850000000     0.966100000000     0.978480000000    -0.0743187  
C277     C      0.221610000000     0.966190000000     0.978730000000     0.0365733  
C278     C      0.237170000000     0.991460000000     0.991830000000    -0.136565   
C279     C      0.221330000000     0.016510000000     0.005080000000     0.0392277  
C280     C      0.190590000000     0.016240000000     0.005510000000    -0.0718928  
H1       H      0.036820000000     0.309690000000     0.772780000000     0.045774   
H2       H      0.036920000000     0.310000000000     0.852970000000     0.028031   
H3       H      0.946500000000     0.339280000000     0.853130000000     0.0283639  
H4       H      0.946720000000     0.340250000000     0.772900000000     0.0457808  
H5       H      0.946810000000     0.309970000000     0.710040000000     0.0456709  
H6       H      0.946750000000     0.310900000000     0.629870000000     0.0280699  
H7       H      0.037170000000     0.340180000000     0.630290000000     0.0284014  
H8       H      0.036920000000     0.340540000000     0.710530000000     0.0458428  
H9       H      0.947050000000     0.309670000000     0.210310000000     0.045678   
H10      H      0.946990000000     0.309960000000     0.130120000000     0.028085   
H11      H      0.037390000000     0.339320000000     0.130040000000     0.0283849  
H12      H      0.037130000000     0.340300000000     0.210270000000     0.0458643  
H13      H      0.037020000000     0.310010000000     0.273130000000     0.0457589  
H14      H      0.037050000000     0.310940000000     0.353300000000     0.0280818  
H15      H      0.946610000000     0.340170000000     0.352800000000     0.0283494  
H16      H      0.946900000000     0.340530000000     0.272550000000     0.0457518  
H17      H      0.008840000000     0.138910000000     0.424970000000     0.0472224  
H18      H      0.008770000000     0.085120000000     0.424750000000     0.0290197  
H19      H      0.975080000000     0.085050000000     0.557990000000     0.0283686  
H20      H      0.974900000000     0.138830000000     0.557840000000     0.0467087  
H21      H      0.947020000000     0.179580000000     0.514820000000     0.0466864  
H22      H      0.946910000000     0.233370000000     0.514690000000     0.0279335  
H23      H      0.036840000000     0.233380000000     0.468340000000     0.0279516  
H24      H      0.036720000000     0.179590000000     0.468090000000     0.0468018  
H25      H      0.975150000000     0.137590000000     0.058020000000     0.0466755  
H26      H      0.975360000000     0.083810000000     0.058240000000     0.0284179  
H27      H      0.009220000000     0.083810000000     0.925100000000     0.0290414  
H28      H      0.009260000000     0.137600000000     0.925240000000     0.0471534  
H29      H      0.036990000000     0.178390000000     0.968240000000     0.0467642  
H30      H      0.037020000000     0.232180000000     0.968400000000     0.0279198  
H31      H      0.947090000000     0.232060000000     0.014730000000     0.0279566  
H32      H      0.947290000000     0.178270000000     0.014950000000     0.0467024  
H33      H      0.846120000000     0.975380000000     0.558250000000     0.046521   
H34      H      0.899910000000     0.975540000000     0.558250000000     0.0278334  
H35      H      0.899690000000     0.009340000000     0.425080000000     0.0284884  
H36      H      0.845900000000     0.009430000000     0.425430000000     0.0470072  
H37      H      0.805200000000     0.037210000000     0.468600000000     0.0466726  
H38      H      0.751410000000     0.037230000000     0.468810000000     0.0278618  
H39      H      0.751590000000     0.947300000000     0.515130000000     0.0278972  
H40      H      0.805370000000     0.947510000000     0.515300000000     0.0465503  
H41      H      0.643650000000     0.037310000000     0.710390000000     0.0458525  
H42      H      0.644340000000     0.037430000000     0.630160000000     0.0284109  
H43      H      0.673580000000     0.947000000000     0.630330000000     0.0280454  
H44      H      0.674160000000     0.947190000000     0.710520000000     0.0456726  
H45      H      0.643540000000     0.947240000000     0.773060000000     0.04578    
H46      H      0.644230000000     0.947110000000     0.853290000000     0.0284006  
H47      H      0.673690000000     0.037470000000     0.853120000000     0.0280552  
H48      H      0.674270000000     0.037280000000     0.772930000000     0.0457402  
H49      H      0.674660000000     0.037170000000     0.273300000000     0.0457623  
H50      H      0.674010000000     0.037100000000     0.353470000000     0.0279988  
H51      H      0.644660000000     0.946700000000     0.352960000000     0.0283028  
H52      H      0.644010000000     0.947090000000     0.272710000000     0.0457428  
H53      H      0.674540000000     0.947290000000     0.210150000000     0.0456556  
H54      H      0.673900000000     0.947370000000     0.129980000000     0.0280657  
H55      H      0.644770000000     0.037840000000     0.130490000000     0.0283684  
H56      H      0.644120000000     0.037450000000     0.210740000000     0.0458452  
H57      H      0.845920000000     0.974630000000     0.057800000000     0.0465031  
H58      H      0.899710000000     0.974640000000     0.058060000000     0.0278573  
H59      H      0.899870000000     0.008440000000     0.924880000000     0.0284993  
H60      H      0.846080000000     0.008680000000     0.924980000000     0.0469722  
H61      H      0.805460000000     0.036640000000     0.968020000000     0.0466622  
H62      H      0.751680000000     0.036990000000     0.968280000000     0.02788    
H63      H      0.751310000000     0.947060000000     0.014600000000     0.0278976  
H64      H      0.805100000000     0.946940000000     0.014720000000     0.0465473  
H65      H      0.036960000000     0.513480000000     0.514660000000     0.0458425  
H66      H      0.037160000000     0.567020000000     0.513720000000     0.0283453  
H67      H      0.946790000000     0.567100000000     0.469640000000     0.0283482  
H68      H      0.946900000000     0.513560000000     0.468660000000     0.0457576  
H69      H      0.946850000000     0.471780000000     0.514460000000     0.0457733  
H70      H      0.946680000000     0.418250000000     0.513470000000     0.0283512  
H71      H      0.037120000000     0.418230000000     0.469700000000     0.0283547  
H72      H      0.036980000000     0.471770000000     0.468770000000     0.0458507  
H73      H      0.037190000000     0.805670000000     0.514840000000     0.046626   
H74      H      0.037200000000     0.751880000000     0.514730000000     0.0278953  
H75      H      0.947270000000     0.752010000000     0.468440000000     0.0278967  
H76      H      0.947480000000     0.805800000000     0.468160000000     0.0465344  
H77      H      0.975340000000     0.846440000000     0.425050000000     0.0465054  
H78      H      0.975490000000     0.900230000000     0.424810000000     0.0278667  
H79      H      0.009390000000     0.900270000000     0.557920000000     0.028487   
H80      H      0.009480000000     0.846490000000     0.557800000000     0.0470067  
H81      H      0.037000000000     0.512260000000     0.014480000000     0.0458683  
H82      H      0.037180000000     0.565790000000     0.013540000000     0.0283732  
H83      H      0.946740000000     0.565850000000     0.969760000000     0.028353   
H84      H      0.946870000000     0.512310000000     0.968790000000     0.0457639  
H85      H      0.946890000000     0.470540000000     0.014590000000     0.0457757  
H86      H      0.946720000000     0.417000000000     0.013600000000     0.0283642  
H87      H      0.037100000000     0.417000000000     0.969510000000     0.0283774  
H88      H      0.036950000000     0.470540000000     0.968580000000     0.0458005  
H89      H      0.946960000000     0.674110000000     0.773170000000     0.0456612  
H90      H      0.946900000000     0.673180000000     0.853340000000     0.0280349  
H91      H      0.037290000000     0.643830000000     0.852920000000     0.0283392  
H92      H      0.037040000000     0.643480000000     0.772680000000     0.0458743  
H93      H      0.036970000000     0.674340000000     0.710440000000     0.0457234  
H94      H      0.037060000000     0.674040000000     0.630250000000     0.0280063  
H95      H      0.946620000000     0.644820000000     0.630080000000     0.0283496  
H96      H      0.946840000000     0.643840000000     0.710310000000     0.0457569  
H97      H      0.037250000000     0.643710000000     0.272940000000     0.0458599  
H98      H      0.037510000000     0.644690000000     0.353170000000     0.028359   
H99      H      0.947140000000     0.674120000000     0.353100000000     0.0280752  
H100     H      0.947190000000     0.674420000000     0.272910000000     0.0456499  
H101     H      0.947020000000     0.643560000000     0.210660000000     0.0457914  
H102     H      0.946730000000     0.643930000000     0.130420000000     0.0283481  
H103     H      0.037190000000     0.673090000000     0.129920000000     0.0280287  
H104     H      0.037170000000     0.674010000000     0.210090000000     0.0457298  
H105     H      0.036920000000     0.804470000000     0.014990000000     0.0466673  
H106     H      0.037020000000     0.750680000000     0.014790000000     0.0278782  
H107     H      0.947090000000     0.750700000000     0.968480000000     0.0278772  
H108     H      0.947210000000     0.804490000000     0.968290000000     0.046535   
H109     H      0.975080000000     0.845200000000     0.925220000000     0.0464872  
H110     H      0.975220000000     0.898990000000     0.925060000000     0.0278679  
H111     H      0.008940000000     0.898970000000     0.058270000000     0.0285103  
H112     H      0.009060000000     0.845180000000     0.058080000000     0.0469968  
H113     H      0.471460000000     0.036620000000     0.514350000000     0.0457754  
H114     H      0.417960000000     0.036920000000     0.513460000000     0.0280757  
H115     H      0.417640000000     0.946360000000     0.470260000000     0.0283351  
H116     H      0.471210000000     0.946360000000     0.469220000000     0.0457858  
H117     H      0.513200000000     0.946520000000     0.514670000000     0.0458143  
H118     H      0.566740000000     0.946490000000     0.513680000000     0.0283523  
H119     H      0.566510000000     0.036780000000     0.469180000000     0.0283157  
H120     H      0.512990000000     0.036490000000     0.468240000000     0.0458078  
H121     H      0.179290000000     0.038170000000     0.514620000000     0.0468207  
H122     H      0.233110000000     0.038070000000     0.514580000000     0.028245   
H123     H      0.232760000000     0.948360000000     0.467290000000     0.0280056  
H124     H      0.179000000000     0.948700000000     0.466980000000     0.0466475  
H125     H      0.138390000000     0.976660000000     0.424290000000     0.0466763  
H126     H      0.084610000000     0.976500000000     0.424310000000     0.0284375  
H127     H      0.084650000000     0.009890000000     0.557710000000     0.0290761  
H128     H      0.138440000000     0.010290000000     0.557340000000     0.0472005  
H129     H      0.513280000000     0.038260000000     0.968610000000     0.0458985  
H130     H      0.566830000000     0.038220000000     0.969740000000     0.0283547  
H131     H      0.566410000000     0.947930000000     0.014210000000     0.0283343  
H132     H      0.512890000000     0.948300000000     0.015000000000     0.0457704  
H133     H      0.471480000000     0.948210000000     0.968690000000     0.0457237  
H134     H      0.417980000000     0.947920000000     0.969430000000     0.0280613  
H135     H      0.417620000000     0.038470000000     0.012670000000     0.0282972  
H136     H      0.471190000000     0.038450000000     0.013860000000     0.0459082  
H137     H      0.340430000000     0.037400000000     0.710070000000     0.0458496  
H138     H      0.339860000000     0.037480000000     0.629890000000     0.0280444  
H139     H      0.310600000000     0.947050000000     0.629980000000     0.0283189  
H140     H      0.309890000000     0.947290000000     0.710220000000     0.0457353  
H141     H      0.309850000000     0.037470000000     0.772630000000     0.0458378  
H142     H      0.310570000000     0.037710000000     0.852860000000     0.0283468  
H143     H      0.339910000000     0.947310000000     0.852940000000     0.0281062  
H144     H      0.340480000000     0.947390000000     0.772760000000     0.0457296  
H145     H      0.340840000000     0.947280000000     0.210250000000     0.0457835  
H146     H      0.340120000000     0.947010000000     0.130010000000     0.0283499  
H147     H      0.310780000000     0.037410000000     0.129860000000     0.0280468  
H148     H      0.310220000000     0.037370000000     0.210040000000     0.0457636  
H149     H      0.340790000000     0.037500000000     0.272580000000     0.045861   
H150     H      0.340090000000     0.037760000000     0.352820000000     0.0283374  
H151     H      0.310850000000     0.947330000000     0.352990000000     0.0280493  
H152     H      0.310270000000     0.947380000000     0.272810000000     0.045702   
H153     H      0.138380000000     0.007790000000     0.058560000000     0.0471516  
H154     H      0.084600000000     0.007780000000     0.058610000000     0.0290645  
H155     H      0.084660000000     0.974380000000     0.925220000000     0.0284245  
H156     H      0.138450000000     0.974150000000     0.925510000000     0.0466714  
H157     H      0.179380000000     0.946370000000     0.968200000000     0.0467432  
H158     H      0.233190000000     0.946580000000     0.968220000000     0.0282409  
H159     H      0.232670000000     0.036290000000     0.015490000000     0.0279875  
H160     H      0.178920000000     0.035850000000     0.015830000000     0.0467623  
O1       O      0.283310000000     0.016500000000     0.991890000000    -0.544556   
O2       O      0.366850000000     0.017400000000     0.991550000000    -0.543101   
O3       O      0.324870000000     0.017060000000     0.928960000000    -0.5433     
O4       O      0.325070000000     0.016850000000     0.054110000000    -0.544477   
O5       O      0.325800000000     0.967640000000     0.053880000000    -0.544654   
O6       O      0.325670000000     0.967860000000     0.928730000000    -0.546166   
O7       O      0.367380000000     0.968200000000     0.991030000000    -0.546357   
O8       O      0.283860000000     0.967290000000     0.991230000000    -0.544806   
O9       O      0.283830000000     0.017430000000     0.491590000000    -0.543232   
O10      O      0.367360000000     0.016610000000     0.491830000000    -0.544697   
O11      O      0.325790000000     0.017120000000     0.428960000000    -0.543242   
O12      O      0.325630000000     0.016910000000     0.554110000000    -0.544864   
O13      O      0.324880000000     0.967710000000     0.553880000000    -0.544761   
O14      O      0.325110000000     0.967910000000     0.428730000000    -0.54604    
O15      O      0.366880000000     0.967400000000     0.491320000000    -0.544495   
O16      O      0.283340000000     0.968220000000     0.490940000000    -0.546123   
O17      O      0.016640000000     0.700030000000     0.991490000000    -0.544168   
O18      O      0.016590000000     0.616500000000     0.992320000000    -0.543974   
O19      O      0.016690000000     0.657920000000     0.929160000000    -0.543383   
O20      O      0.016550000000     0.658640000000     0.054300000000    -0.544789   
O21      O      0.967350000000     0.657940000000     0.054150000000    -0.544715   
O22      O      0.967490000000     0.658660000000     0.928990000000    -0.546112   
O23      O      0.967390000000     0.616530000000     0.990980000000    -0.545579   
O24      O      0.967430000000     0.700060000000     0.991800000000    -0.545468   
O25      O      0.016760000000     0.701250000000     0.491550000000    -0.544047   
O26      O      0.016630000000     0.617720000000     0.492410000000    -0.544249   
O27      O      0.016850000000     0.659110000000     0.429230000000    -0.543191   
O28      O      0.016540000000     0.659850000000     0.554390000000    -0.544654   
O29      O      0.967340000000     0.659190000000     0.554070000000    -0.544882   
O30      O      0.967650000000     0.659900000000     0.428920000000    -0.546191   
O31      O      0.967440000000     0.617780000000     0.490910000000    -0.54554    
O32      O      0.967550000000     0.701320000000     0.491710000000    -0.545319   
O33      O      0.700710000000     0.967680000000     0.991480000000    -0.545466   
O34      O      0.617170000000     0.968180000000     0.992570000000    -0.545442   
O35      O      0.658490000000     0.967800000000     0.929290000000    -0.544971   
O36      O      0.659390000000     0.968020000000     0.054410000000    -0.54623    
O37      O      0.658940000000     0.017230000000     0.054200000000    -0.542779   
O38      O      0.659490000000     0.017000000000     0.929020000000    -0.544438   
O39      O      0.617450000000     0.017380000000     0.991130000000    -0.544014   
O40      O      0.700980000000     0.016890000000     0.991710000000    -0.543894   
O41      O      0.700920000000     0.967520000000     0.491740000000    -0.545646   
O42      O      0.617400000000     0.967230000000     0.492310000000    -0.54565    
O43      O      0.658890000000     0.967280000000     0.429250000000    -0.544463   
O44      O      0.659440000000     0.967510000000     0.554430000000    -0.546002   
O45      O      0.658550000000     0.016710000000     0.554160000000    -0.54355    
O46      O      0.659450000000     0.016480000000     0.429040000000    -0.54505    
O47      O      0.617230000000     0.016420000000     0.490870000000    -0.54407    
O48      O      0.700770000000     0.016730000000     0.491970000000    -0.543961   
O49      O      0.034010000000     0.990510000000     0.954920000000    -0.543879   
O50      O      0.950480000000     0.992260000000     0.954730000000    -0.546158   
O51      O      0.993110000000     0.033150000000     0.954830000000    -0.544381   
O52      O      0.991380000000     0.949630000000     0.954820000000    -0.54588    
O53      O      0.992880000000     0.949620000000     0.028520000000    -0.546197   
O54      O      0.991460000000     0.033150000000     0.028520000000    -0.544005   
O55      O      0.950410000000     0.990680000000     0.028420000000    -0.546021   
O56      O      0.033930000000     0.992080000000     0.028610000000    -0.544604   
O57      O      0.033920000000     0.992060000000     0.454370000000    -0.544139   
O58      O      0.950390000000     0.993310000000     0.454660000000    -0.546399   
O59      O      0.992790000000     0.034440000000     0.454520000000    -0.544631   
O60      O      0.991520000000     0.950910000000     0.454520000000    -0.545984   
O61      O      0.993210000000     0.950920000000     0.528200000000    -0.546449   
O62      O      0.991320000000     0.034430000000     0.528210000000    -0.544381   
O63      O      0.950510000000     0.991740000000     0.528350000000    -0.546037   
O64      O      0.034030000000     0.993640000000     0.528060000000    -0.544368   
O65      O      0.967390000000     0.282750000000     0.991490000000    -0.545407   
O66      O      0.967330000000     0.366290000000     0.992310000000    -0.545377   
O67      O      0.967210000000     0.324890000000     0.929150000000    -0.544861   
O68      O      0.967510000000     0.324170000000     0.054290000000    -0.546148   
O69      O      0.016710000000     0.324930000000     0.053980000000    -0.54329    
O70      O      0.016410000000     0.324200000000     0.928830000000    -0.54475    
O71      O      0.016530000000     0.366330000000     0.990810000000    -0.543924   
O72      O      0.016600000000     0.282800000000     0.991650000000    -0.544196   
O73      O      0.967270000000     0.284020000000     0.491400000000    -0.54544    
O74      O      0.967290000000     0.367550000000     0.492250000000    -0.545428   
O75      O      0.967220000000     0.326140000000     0.429070000000    -0.544724   
O76      O      0.967360000000     0.325410000000     0.554220000000    -0.546265   
O77      O      0.016560000000     0.326120000000     0.554060000000    -0.543299   
O78      O      0.016420000000     0.325410000000     0.428910000000    -0.544744   
O79      O      0.016490000000     0.367540000000     0.490900000000    -0.54409    
O80      O      0.016490000000     0.284010000000     0.491700000000    -0.543846   
V1       V      0.325020000000     0.018920000000     0.991600000000     1.38831    
V2       V      0.325680000000     0.965780000000     0.991240000000     1.38343    
V3       V      0.325650000000     0.018990000000     0.491600000000     1.38902    
V4       V      0.325050000000     0.965840000000     0.491240000000     1.38292    
V5       V      0.018590000000     0.658270000000     0.991790000000     1.38915    
V6       V      0.965440000000     0.658290000000     0.991510000000     1.38293    
V7       V      0.018670000000     0.659480000000     0.491870000000     1.38881    
V8       V      0.965520000000     0.659550000000     0.491430000000     1.38301    
V9       V      0.658930000000     0.965950000000     0.991910000000     1.38351    
V10      V      0.659220000000     0.019100000000     0.991540000000     1.38809    
V11      V      0.659170000000     0.965410000000     0.491910000000     1.38296    
V12      V      0.658990000000     0.018560000000     0.491540000000     1.38931    
V13      V      0.992250000000     0.991390000000     0.951860000000     1.38004    
V14      V      0.992170000000     0.991390000000     0.031480000000     1.38081    
V15      V      0.992150000000     0.992680000000     0.451550000000     1.38051    
V16      V      0.992270000000     0.992680000000     0.531170000000     1.38075    
V17      V      0.965390000000     0.324520000000     0.991790000000     1.38309    
V18      V      0.018540000000     0.324560000000     0.991340000000     1.38884    
V19      V      0.965310000000     0.325780000000     0.491710000000     1.38318    
V20      V      0.018460000000     0.325780000000     0.491420000000     1.38895    


