data_structure

_audit_creation_method RASPA-1.0
_audit_creation_date 2023-5-22
_audit_author_name 'Poobodin Mano'

_cell_length_a    51.6754
_cell_length_b    52.4274
_cell_length_c    52.2817
_cell_angle_alpha 90.0007
_cell_angle_beta  89.9982
_cell_angle_gamma 89.9978
_cell_volume      141642

_symmetry_cell_setting          triclinic
_symmetry_space_group_name_Hall 'P 1'
_symmetry_space_group_name_H-M  'P 1'
_symmetry_Int_Tables_number     1

_symmetry_equiv_pos_as_xyz 'x,y,z'

loop_
_atom_site_label
_atom_site_type_symbol
_atom_site_fract_x
_atom_site_fract_y
_atom_site_fract_z
_atom_site_charge
C1       C      0.822280000000     0.514170000000     0.867360000000     0.436313   
C2       C      0.872340000000     0.447500000000     0.818130000000     0.435051   
C3       C      0.823830000000     0.446260000000     0.867300000000     0.433643   
C4       C      0.870750000000     0.515480000000     0.818300000000     0.434135   
C5       C      0.670980000000     0.679410000000     0.050620000000     0.434921   
C6       C      0.720490000000     0.630110000000     0.983530000000     0.436137   
C7       C      0.672250000000     0.679260000000     0.982420000000     0.433773   
C8       C      0.719210000000     0.630130000000     0.051610000000     0.433619   
C9       C      0.489000000000     0.782920000000     0.866860000000     0.434586   
C10      C      0.557290000000     0.831170000000     0.817360000000     0.435557   
C11      C      0.557980000000     0.782740000000     0.865950000000     0.433625   
C12      C      0.488530000000     0.831440000000     0.818300000000     0.43378    
C13      C      0.672630000000     0.016020000000     0.714540000000     0.43328    
C14      C      0.720590000000     0.947390000000     0.665700000000     0.433291   
C15      C      0.672260000000     0.948130000000     0.714930000000     0.435503   
C16      C      0.721080000000     0.015340000000     0.665350000000     0.435308   
C17      C      0.054930000000     0.678780000000     0.665840000000     0.433604   
C18      C      0.985270000000     0.631460000000     0.714590000000     0.433659   
C19      C      0.986130000000     0.679940000000     0.666060000000     0.435382   
C20      C      0.054200000000     0.630320000000     0.714460000000     0.434215   
C21      C      0.822840000000     0.831600000000     0.549800000000     0.434204   
C22      C      0.871730000000     0.783640000000     0.481100000000     0.434009   
C23      C      0.823170000000     0.832630000000     0.481630000000     0.434665   
C24      C      0.871280000000     0.782600000000     0.549200000000     0.436002   
C25      C      0.486760000000     0.178590000000     0.865990000000     0.433095   
C26      C      0.556820000000     0.130940000000     0.818130000000     0.433266   
C27      C      0.555670000000     0.179420000000     0.866640000000     0.434951   
C28      C      0.487970000000     0.130190000000     0.817490000000     0.435514   
C29      C      0.671770000000     0.281930000000     0.050720000000     0.433648   
C30      C      0.721210000000     0.329960000000     0.982440000000     0.433567   
C31      C      0.672450000000     0.281130000000     0.982670000000     0.434828   
C32      C      0.720600000000     0.330770000000     0.050540000000     0.434234   
C33      C      0.822070000000     0.514500000000     0.167200000000     0.433656   
C34      C      0.872030000000     0.446740000000     0.215290000000     0.43407    
C35      C      0.823050000000     0.446570000000     0.166460000000     0.434546   
C36      C      0.870930000000     0.514620000000     0.215980000000     0.435449   
C37      C      0.987060000000     0.679900000000     0.365720000000     0.433891   
C38      C      0.055970000000     0.630350000000     0.318200000000     0.434068   
C39      C      0.055940000000     0.679090000000     0.366580000000     0.434169   
C40      C      0.987140000000     0.631230000000     0.317370000000     0.435438   
C41      C      0.171180000000     0.781880000000     0.550670000000     0.434064   
C42      C      0.219960000000     0.831170000000     0.482840000000     0.434107   
C43      C      0.171310000000     0.782170000000     0.482560000000     0.434478   
C44      C      0.219870000000     0.830860000000     0.550950000000     0.434629   
C45      C      0.371850000000     0.946400000000     0.715520000000     0.434293   
C46      C      0.322220000000     0.014180000000     0.667150000000     0.433637   
C47      C      0.371060000000     0.014230000000     0.716010000000     0.435365   
C48      C      0.322920000000     0.946240000000     0.666660000000     0.433961   
C49      C      0.670770000000     0.016310000000     0.317880000000     0.434518   
C50      C      0.719920000000     0.948480000000     0.366620000000     0.434643   
C51      C      0.670900000000     0.948330000000     0.317900000000     0.434205   
C52      C      0.719830000000     0.016390000000     0.366570000000     0.434396   
C53      C      0.487060000000     0.831920000000     0.214430000000     0.434963   
C54      C      0.556170000000     0.783560000000     0.166060000000     0.435083   
C55      C      0.555960000000     0.832160000000     0.214600000000     0.434412   
C56      C      0.487310000000     0.783410000000     0.165890000000     0.434466   
C57      C      0.220750000000     0.447970000000     0.865660000000     0.435972   
C58      C      0.170990000000     0.515570000000     0.817390000000     0.434687   
C59      C      0.219850000000     0.515870000000     0.866350000000     0.433643   
C60      C      0.172030000000     0.447630000000     0.816850000000     0.43427    
C61      C      0.372310000000     0.679970000000     0.981720000000     0.434149   
C62      C      0.323410000000     0.631400000000     0.049950000000     0.434242   
C63      C      0.372260000000     0.680060000000     0.049850000000     0.434645   
C64      C      0.323320000000     0.631230000000     0.981820000000     0.434075   
C65      C      0.172160000000     0.515100000000     0.215110000000     0.434433   
C66      C      0.221910000000     0.448310000000     0.165480000000     0.434574   
C67      C      0.173170000000     0.447180000000     0.214550000000     0.434808   
C68      C      0.220860000000     0.516210000000     0.166080000000     0.434542   
C69      C      0.371200000000     0.282700000000     0.980630000000     0.433796   
C70      C      0.324670000000     0.332990000000     0.049260000000     0.43382    
C71      C      0.373310000000     0.283980000000     0.048640000000     0.435127   
C72      C      0.322660000000     0.331620000000     0.981220000000     0.435888   
C73      C      0.554200000000     0.129820000000     0.213520000000     0.435019   
C74      C      0.486410000000     0.177790000000     0.163010000000     0.434782   
C75      C      0.485240000000     0.129360000000     0.211780000000     0.433857   
C76      C      0.555120000000     0.178230000000     0.164890000000     0.434133   
C77      C      0.055880000000     0.283340000000     0.665090000000     0.434663   
C78      C      0.987930000000     0.332710000000     0.714050000000     0.434953   
C79      C      0.986950000000     0.284120000000     0.665620000000     0.434221   
C80      C      0.056830000000     0.331990000000     0.713480000000     0.434693   
C81      C      0.872200000000     0.180830000000     0.482100000000     0.434134   
C82      C      0.822330000000     0.132380000000     0.549620000000     0.4353     
C83      C      0.871090000000     0.181120000000     0.550250000000     0.434161   
C84      C      0.823370000000     0.132000000000     0.481600000000     0.433968   
C85      C      0.220780000000     0.130310000000     0.482880000000     0.436248   
C86      C      0.171490000000     0.178960000000     0.550610000000     0.434833   
C87      C      0.219780000000     0.129700000000     0.551030000000     0.434275   
C88      C      0.172520000000     0.179460000000     0.482500000000     0.433797   
C89      C      0.321310000000     0.014840000000     0.365230000000     0.435906   
C90      C      0.370470000000     0.946640000000     0.317240000000     0.434841   
C91      C      0.322050000000     0.946970000000     0.366530000000     0.433691   
C92      C      0.369730000000     0.014540000000     0.315970000000     0.433532   
C93      C      0.988870000000     0.332130000000     0.318390000000     0.433914   
C94      C      0.057820000000     0.283650000000     0.366980000000     0.434204   
C95      C      0.057790000000     0.332040000000     0.318330000000     0.434596   
C96      C      0.988880000000     0.283690000000     0.367080000000     0.434091   
C97      C      0.105430000000     0.264950000000     0.418890000000    -0.0740391  
C98      C      0.111680000000     0.239810000000     0.411940000000     0.0250106  
C99      C      0.101000000000     0.229610000000     0.389430000000    -0.074204   
C100     C      0.084010000000     0.244040000000     0.374490000000     0.0358243  
C101     C      0.077180000000     0.268960000000     0.381830000000    -0.133718   
C102     C      0.088320000000     0.279350000000     0.404050000000     0.0360539  
C103     C      0.128280000000     0.223920000000     0.428770000000     0.0250528  
C104     C      0.150710000000     0.234100000000     0.440060000000    -0.0741837  
C105     C      0.165470000000     0.219480000000     0.457040000000     0.0358155  
C106     C      0.157980000000     0.194440000000     0.463250000000    -0.133859   
C107     C      0.135810000000     0.184150000000     0.451570000000     0.0362433  
C108     C      0.121180000000     0.198690000000     0.434480000000    -0.0742185  
C109     C      0.304940000000     0.071460000000     0.406850000000    -0.0737342  
C110     C      0.278250000000     0.067890000000     0.411230000000     0.025469   
C111     C      0.265870000000     0.047150000000     0.399170000000    -0.0735961  
C112     C      0.279730000000     0.030500000000     0.383440000000     0.0382547  
C113     C      0.306430000000     0.033680000000     0.380020000000    -0.135601   
C114     C      0.318930000000     0.054270000000     0.391800000000     0.0384879  
C115     C      0.263620000000     0.085100000000     0.428920000000     0.0255736  
C116     C      0.276110000000     0.096930000000     0.449770000000    -0.0737277  
C117     C      0.262290000000     0.112310000000     0.466790000000     0.038356   
C118     C      0.235540000000     0.115580000000     0.463880000000    -0.135775   
C119     C      0.222920000000     0.103960000000     0.443220000000     0.03846    
C120     C      0.236860000000     0.089270000000     0.425670000000    -0.0738369  
C121     C      0.945940000000     0.229620000000     0.389950000000    -0.0742231  
C122     C      0.934980000000     0.240070000000     0.412210000000     0.0250957  
C123     C      0.941080000000     0.265320000000     0.418930000000    -0.074081   
C124     C      0.958240000000     0.279600000000     0.404050000000     0.0361521  
C125     C      0.969570000000     0.269020000000     0.382010000000    -0.133569   
C126     C      0.962970000000     0.243970000000     0.374960000000     0.0359938  
C127     C      0.918030000000     0.224440000000     0.428950000000     0.0250893  
C128     C      0.895410000000     0.234840000000     0.439620000000    -0.0741998  
C129     C      0.880210000000     0.220510000000     0.456430000000     0.0359109  
C130     C      0.887410000000     0.195500000000     0.463100000000    -0.133644   
C131     C      0.909810000000     0.184970000000     0.452070000000     0.0362111  
C132     C      0.924900000000     0.199240000000     0.435130000000    -0.0741142  
C133     C      0.922600000000     0.199770000000     0.598330000000    -0.0741448  
C134     C      0.915670000000     0.225020000000     0.604160000000     0.0250972  
C135     C      0.893290000000     0.235390000000     0.592960000000    -0.0741424  
C136     C      0.878410000000     0.220950000000     0.575930000000     0.0358213  
C137     C      0.885740000000     0.195900000000     0.569580000000    -0.133787   
C138     C      0.907860000000     0.185400000000     0.581190000000     0.0362097  
C139     C      0.932450000000     0.240760000000     0.620960000000     0.0251124  
C140     C      0.943180000000     0.230440000000     0.643390000000    -0.074177   
C141     C      0.960370000000     0.244730000000     0.658260000000     0.0358745  
C142     C      0.967340000000     0.269610000000     0.650920000000    -0.133552   
C143     C      0.956130000000     0.280110000000     0.628780000000     0.0361689  
C144     C      0.938830000000     0.265870000000     0.614020000000    -0.0740502  
C145     C      0.103360000000     0.264220000000     0.613280000000    -0.0743664  
C146     C      0.109240000000     0.238970000000     0.620170000000     0.0252158  
C147     C      0.098200000000     0.228740000000     0.642480000000    -0.0744564  
C148     C      0.081320000000     0.243330000000     0.657390000000     0.0363299  
C149     C      0.074960000000     0.268400000000     0.650190000000    -0.134304   
C150     C      0.086360000000     0.278750000000     0.628080000000     0.0364859  
C151     C      0.126060000000     0.223110000000     0.603550000000     0.0251689  
C152     C      0.118920000000     0.197980000000     0.597430000000    -0.0742257  
C153     C      0.133890000000     0.183500000000     0.580570000000     0.0363121  
C154     C      0.156430000000     0.193790000000     0.569590000000    -0.133989   
C155     C      0.163910000000     0.218720000000     0.576220000000     0.0361755  
C156     C      0.148820000000     0.233250000000     0.592950000000    -0.0743948  
C157     C      0.392260000000     0.055830000000     0.260630000000    -0.0740792  
C158     C      0.414410000000     0.067470000000     0.270990000000     0.0250607  
C159     C      0.421130000000     0.062290000000     0.296510000000    -0.0741847  
C160     C      0.406380000000     0.045440000000     0.311180000000     0.0361488  
C161     C      0.384430000000     0.033480000000     0.300750000000    -0.133446   
C162     C      0.377350000000     0.039100000000     0.275390000000     0.0356904  
C163     C      0.431050000000     0.084270000000     0.255110000000     0.0249423  
C164     C      0.437930000000     0.077110000000     0.230110000000    -0.0738659  
C165     C      0.455140000000     0.091980000000     0.215830000000     0.0358436  
C166     C      0.465720000000     0.114430000000     0.226190000000    -0.13347    
C167     C      0.458220000000     0.121970000000     0.250930000000     0.0356583  
C168     C      0.441150000000     0.107010000000     0.265240000000    -0.0741933  
C169     C      0.431060000000     0.256540000000     0.083400000000    -0.075137   
C170     C      0.419250000000     0.239390000000     0.100350000000     0.0252684  
C171     C      0.392180000000     0.237570000000     0.100980000000    -0.0749052  
C172     C      0.377120000000     0.252210000000     0.084280000000     0.0370237  
C173     C      0.388930000000     0.269300000000     0.067150000000    -0.134992   
C174     C      0.416030000000     0.271590000000     0.067140000000     0.037286   
C175     C      0.435370000000     0.222830000000     0.116650000000     0.0253129  
C176     C      0.452320000000     0.205260000000     0.105330000000    -0.0752099  
C177     C      0.468330000000     0.190090000000     0.120520000000     0.0374243  
C178     C      0.468080000000     0.192630000000     0.147280000000    -0.135051   
C179     C      0.450970000000     0.210170000000     0.158600000000     0.0369755  
C180     C      0.434490000000     0.224950000000     0.143380000000    -0.0749241  
C181     C      0.307080000000     0.385800000000     0.095750000000    -0.0739746  
C182     C      0.281800000000     0.378910000000     0.102870000000     0.0249403  
C183     C      0.271180000000     0.356270000000     0.093060000000    -0.0743932  
C184     C      0.285320000000     0.341090000000     0.076120000000     0.0356878  
C185     C      0.310370000000     0.348290000000     0.068460000000    -0.133781   
C186     C      0.321180000000     0.370700000000     0.078670000000     0.0359262  
C187     C      0.266200000000     0.395790000000     0.119670000000     0.0250928  
C188     C      0.277190000000     0.407090000000     0.141500000000    -0.0742936  
C189     C      0.262660000000     0.423730000000     0.156710000000     0.0360093  
C190     C      0.236910000000     0.429590000000     0.150280000000    -0.133927   
C191     C      0.225860000000     0.418030000000     0.128610000000     0.0363247  
C192     C      0.240310000000     0.401260000000     0.113540000000    -0.0742598  
C193     C      0.121400000000     0.399480000000     0.233270000000    -0.0742287  
C194     C      0.128450000000     0.393500000000     0.258520000000     0.0251162  
C195     C      0.150990000000     0.404430000000     0.268820000000    -0.0742937  
C196     C      0.165900000000     0.421360000000     0.254340000000     0.0359799  
C197     C      0.158460000000     0.427880000000     0.229300000000    -0.133916   
C198     C      0.136190000000     0.416530000000     0.218850000000     0.0363299  
C199     C      0.111680000000     0.376790000000     0.274350000000     0.0250886  
C200     C      0.105560000000     0.383640000000     0.299620000000    -0.0741497  
C201     C      0.088430000000     0.368870000000     0.314040000000     0.0363188  
C202     C      0.077120000000     0.346830000000     0.303560000000    -0.134022   
C203     C      0.083770000000     0.339610000000     0.278500000000     0.0360248  
C204     C      0.100790000000     0.354490000000     0.264020000000    -0.0743738  
C205     C      0.305360000000     0.580010000000     0.097710000000    -0.0741861  
C206     C      0.279780000000     0.586660000000     0.103910000000     0.0251047  
C207     C      0.268990000000     0.608730000000     0.093010000000    -0.0742988  
C208     C      0.283330000000     0.623600000000     0.075920000000     0.0359796  
C209     C      0.308710000000     0.616600000000     0.069230000000    -0.133839   
C210     C      0.319640000000     0.594760000000     0.080510000000     0.0362627  
C211     C      0.264130000000     0.569970000000     0.120850000000     0.0251809  
C212     C      0.238580000000     0.563620000000     0.114230000000    -0.0743057  
C213     C      0.224380000000     0.546550000000     0.129180000000     0.036411   
C214     C      0.235350000000     0.535540000000     0.151180000000    -0.134006   
C215     C      0.260680000000     0.542440000000     0.158180000000     0.0360493  
C216     C      0.274940000000     0.559410000000     0.143120000000    -0.0743275  
C217     C      0.120600000000     0.399630000000     0.798050000000    -0.0743     
C218     C      0.127670000000     0.393730000000     0.772780000000     0.0250688  
C219     C      0.150080000000     0.404890000000     0.762450000000    -0.0741579  
C220     C      0.164860000000     0.421950000000     0.776930000000     0.0358475  
C221     C      0.157410000000     0.428350000000     0.802000000000    -0.133905   
C222     C      0.135260000000     0.416790000000     0.812460000000     0.0362988  
C223     C      0.111010000000     0.376850000000     0.757000000000     0.0251473  
C224     C      0.100290000000     0.354500000000     0.767410000000    -0.0744141  
C225     C      0.083220000000     0.339560000000     0.753060000000     0.0361266  
C226     C      0.076360000000     0.346730000000     0.728050000000    -0.134017   
C227     C      0.087580000000     0.368770000000     0.717450000000     0.0362907  
C228     C      0.104760000000     0.383620000000     0.731740000000    -0.074256   
C229     C      0.304920000000     0.579520000000     0.934510000000    -0.0740158  
C230     C      0.279190000000     0.585940000000     0.928690000000     0.0250801  
C231     C      0.268390000000     0.607950000000     0.939720000000    -0.0741225  
C232     C      0.282900000000     0.623000000000     0.956510000000     0.0358832  
C233     C      0.308460000000     0.616240000000     0.962800000000    -0.133566   
C234     C      0.319370000000     0.594450000000     0.951430000000     0.0361859  
C235     C      0.263460000000     0.569190000000     0.911880000000     0.0249622  
C236     C      0.274040000000     0.558910000000     0.889370000000    -0.0741162  
C237     C      0.259680000000     0.542060000000     0.874270000000     0.0356232  
C238     C      0.234460000000     0.534960000000     0.881470000000    -0.133535   
C239     C      0.223720000000     0.545610000000     0.903760000000     0.03599    
C240     C      0.238030000000     0.562590000000     0.918740000000    -0.0739349  
C241     C      0.266770000000     0.365080000000     0.949150000000    -0.0735017  
C242     C      0.278910000000     0.376960000000     0.928120000000     0.0254662  
C243     C      0.305570000000     0.372600000000     0.924290000000    -0.0737548  
C244     C      0.319770000000     0.357760000000     0.941500000000     0.0384836  
C245     C      0.307510000000     0.346180000000     0.962400000000    -0.135519   
C246     C      0.280840000000     0.349550000000     0.965840000000     0.0382243  
C247     C      0.264090000000     0.394450000000     0.910880000000     0.0255919  
C248     C      0.237290000000     0.391170000000     0.907000000000    -0.0738523  
C249     C      0.223190000000     0.408560000000     0.892270000000     0.0384318  
C250     C      0.235680000000     0.429090000000     0.880340000000    -0.135722   
C251     C      0.262460000000     0.432020000000     0.883330000000     0.0383299  
C252     C      0.276440000000     0.415160000000     0.898730000000    -0.073679   
C253     C      0.424310000000     0.698700000000     0.097430000000    -0.0742091  
C254     C      0.417160000000     0.723810000000     0.103650000000     0.025046   
C255     C      0.394550000000     0.734070000000     0.092810000000    -0.0742634  
C256     C      0.379650000000     0.719690000000     0.075780000000     0.0359322  
C257     C      0.387150000000     0.694780000000     0.069060000000    -0.133875   
C258     C      0.409520000000     0.684380000000     0.080280000000     0.0362583  
C259     C      0.433850000000     0.739530000000     0.120540000000     0.0251129  
C260     C      0.444780000000     0.729110000000     0.142830000000    -0.0743513  
C261     C      0.461650000000     0.743550000000     0.157920000000     0.0360736  
C262     C      0.468110000000     0.768650000000     0.150930000000    -0.133927   
C263     C      0.456780000000     0.779210000000     0.128880000000     0.0362418  
C264     C      0.439790000000     0.764830000000     0.113910000000    -0.0741522  
C265     C      0.438970000000     0.883340000000     0.232750000000    -0.074378   
C266     C      0.432900000000     0.876610000000     0.258070000000     0.0252105  
C267     C      0.443930000000     0.854470000000     0.268570000000    -0.0744582  
C268     C      0.461050000000     0.839600000000     0.254200000000     0.0362786  
C269     C      0.467650000000     0.846690000000     0.229090000000    -0.134284   
C270     C      0.456210000000     0.868580000000     0.218450000000     0.036573   
C271     C      0.415960000000     0.893270000000     0.273740000000     0.0251578  
C272     C      0.422960000000     0.899590000000     0.298930000000    -0.0743161  
C273     C      0.407950000000     0.916570000000     0.313200000000     0.0365026  
C274     C      0.385510000000     0.927500000000     0.302650000000    -0.134271   
C275     C      0.378150000000     0.920670000000     0.277680000000     0.0362409  
C276     C      0.393280000000     0.903810000000     0.263340000000    -0.0744463  
C277     C      0.774680000000     0.058690000000     0.389490000000    -0.0742271  
C278     C      0.763950000000     0.069700000000     0.411590000000     0.0251029  
C279     C      0.738280000000     0.063800000000     0.418200000000    -0.0740825  
C280     C      0.723830000000     0.046810000000     0.403360000000     0.0362264  
C281     C      0.734680000000     0.035460000000     0.381480000000    -0.133673   
C282     C      0.760160000000     0.041840000000     0.374530000000     0.0360219  
C283     C      0.779710000000     0.086540000000     0.428270000000     0.0251057  
C284     C      0.805180000000     0.079760000000     0.434770000000    -0.0740442  
C285     C      0.819520000000     0.094750000000     0.451740000000     0.0361305  
C286     C      0.808750000000     0.116940000000     0.462460000000    -0.133751   
C287     C      0.783490000000     0.124060000000     0.455420000000     0.03583    
C288     C      0.769100000000     0.108970000000     0.438590000000    -0.0743493  
C289     C      0.618880000000     0.900790000000     0.299370000000    -0.0741965  
C290     C      0.626020000000     0.894520000000     0.274210000000     0.0250858  
C291     C      0.648610000000     0.905320000000     0.263880000000    -0.0742643  
C292     C      0.663510000000     0.922360000000     0.278250000000     0.0359347  
C293     C      0.656020000000     0.929120000000     0.303210000000    -0.133875   
C294     C      0.633670000000     0.917940000000     0.313680000000     0.0362395  
C295     C      0.609340000000     0.877610000000     0.258490000000     0.0250466  
C296     C      0.598430000000     0.855400000000     0.269010000000    -0.0741577  
C297     C      0.581590000000     0.840270000000     0.254570000000     0.0358102  
C298     C      0.575140000000     0.847160000000     0.229360000000    -0.133757   
C299     C      0.586450000000     0.869120000000     0.218720000000     0.0363014  
C300     C      0.603410000000     0.884120000000     0.233090000000    -0.0742096  
C301     C      0.647990000000     0.058820000000     0.263680000000    -0.0741962  
C302     C      0.625210000000     0.069320000000     0.273930000000     0.0250579  
C303     C      0.618180000000     0.063140000000     0.299140000000    -0.0740829  
C304     C      0.633220000000     0.046300000000     0.313550000000     0.03623    
C305     C      0.655730000000     0.035360000000     0.303130000000    -0.13374    
C306     C      0.663130000000     0.042090000000     0.278150000000     0.0360508  
C307     C      0.608190000000     0.085740000000     0.258060000000     0.0252032  
C308     C      0.596820000000     0.107830000000     0.268340000000    -0.0742831  
C309     C      0.579700000000     0.122480000000     0.253730000000     0.0361003  
C310     C      0.573450000000     0.115230000000     0.228580000000    -0.134145   
C311     C      0.585180000000     0.093350000000     0.218190000000     0.0365344  
C312     C      0.602400000000     0.078830000000     0.232730000000    -0.0743026  
C313     C      0.273270000000     0.106820000000     0.595080000000    -0.0743566  
C314     C      0.262590000000     0.084290000000     0.605130000000     0.0251008  
C315     C      0.237300000000     0.077390000000     0.598090000000    -0.0740546  
C316     C      0.223240000000     0.092340000000     0.580850000000     0.0360666  
C317     C      0.234110000000     0.114610000000     0.570380000000    -0.133783   
C318     C      0.259160000000     0.121850000000     0.577970000000     0.0359056  
C319     C      0.278190000000     0.067440000000     0.621960000000     0.0250214  
C320     C      0.304030000000     0.061870000000     0.615750000000    -0.0741308  
C321     C      0.318400000000     0.044920000000     0.630680000000     0.0362286  
C322     C      0.307330000000     0.033240000000     0.652270000000    -0.133526   
C323     C      0.281660000000     0.039260000000     0.658850000000     0.0357326  
C324     C      0.267200000000     0.056100000000     0.643780000000    -0.074      
C325     C      0.238020000000     0.882550000000     0.598360000000    -0.0741536  
C326     C      0.263680000000     0.876040000000     0.604420000000     0.0250738  
C327     C      0.274480000000     0.853950000000     0.593550000000    -0.0742437  
C328     C      0.260070000000     0.838930000000     0.576650000000     0.0360062  
C329     C      0.234600000000     0.845790000000     0.570100000000    -0.133983   
C330     C      0.223670000000     0.867650000000     0.581350000000     0.0362888  
C331     C      0.279360000000     0.892810000000     0.621250000000     0.0250816  
C332     C      0.304880000000     0.899190000000     0.614540000000    -0.0740625  
C333     C      0.319170000000     0.916210000000     0.629500000000     0.0360802  
C334     C      0.308300000000     0.927120000000     0.651600000000    -0.13368    
C335     C      0.282980000000     0.920240000000     0.658640000000     0.0359415  
C336     C      0.268640000000     0.903340000000     0.643580000000    -0.0742702  
C337     C      0.274590000000     0.854870000000     0.440560000000    -0.0741534  
C338     C      0.263550000000     0.876760000000     0.429520000000     0.0250385  
C339     C      0.237790000000     0.882980000000     0.435430000000    -0.0740715  
C340     C      0.223540000000     0.867970000000     0.452430000000     0.0360684  
C341     C      0.234680000000     0.846270000000     0.463790000000    -0.133551   
C342     C      0.260270000000     0.839730000000     0.457440000000     0.0358517  
C343     C      0.279050000000     0.893600000000     0.412580000000     0.0249669  
C344     C      0.304470000000     0.900400000000     0.419260000000    -0.0739967  
C345     C      0.318570000000     0.917430000000     0.404130000000     0.0359544  
C346     C      0.307610000000     0.927930000000     0.381870000000    -0.133657   
C347     C      0.282390000000     0.920640000000     0.374870000000     0.0356783  
C348     C      0.268240000000     0.903740000000     0.390100000000    -0.0742858  
C349     C      0.098930000000     0.733010000000     0.389630000000    -0.0742488  
C350     C      0.109570000000     0.722620000000     0.412070000000     0.0250446  
C351     C      0.103310000000     0.697430000000     0.418820000000    -0.0740498  
C352     C      0.086250000000     0.683140000000     0.403820000000     0.0361247  
C353     C      0.075200000000     0.693680000000     0.381630000000    -0.133806   
C354     C      0.082010000000     0.718670000000     0.374520000000     0.0359334  
C355     C      0.126300000000     0.738320000000     0.428960000000     0.0251177  
C356     C      0.148790000000     0.727970000000     0.439950000000    -0.0742737  
C357     C      0.163760000000     0.742400000000     0.456900000000     0.0359486  
C358     C      0.156430000000     0.767420000000     0.463370000000    -0.133827   
C359     C      0.134170000000     0.777880000000     0.452020000000     0.0363142  
C360     C      0.119320000000     0.763520000000     0.434950000000    -0.0741726  
C361     C      0.099350000000     0.607270000000     0.264470000000    -0.0744606  
C362     C      0.109720000000     0.584770000000     0.274890000000     0.0250794  
C363     C      0.103120000000     0.577950000000     0.300050000000    -0.0741301  
C364     C      0.086010000000     0.592960000000     0.314270000000     0.0361506  
C365     C      0.075240000000     0.615230000000     0.303700000000    -0.134014   
C366     C      0.082380000000     0.622380000000     0.278750000000     0.0358943  
C367     C      0.126530000000     0.567940000000     0.259230000000     0.0250078  
C368     C      0.119800000000     0.562160000000     0.233840000000    -0.0741772  
C369     C      0.134810000000     0.545290000000     0.219440000000     0.0362984  
C370     C      0.157010000000     0.533930000000     0.230030000000    -0.133795   
C371     C      0.164050000000     0.540120000000     0.255260000000     0.0359111  
C372     C      0.148900000000     0.556860000000     0.269740000000    -0.074123   
C373     C      0.929910000000     0.589660000000     0.300490000000    -0.0736746  
C374     C      0.933640000000     0.585620000000     0.274060000000     0.0254491  
C375     C      0.954730000000     0.597820000000     0.262070000000    -0.0735272  
C376     C      0.971520000000     0.613390000000     0.276030000000     0.0382046  
C377     C      0.968180000000     0.616500000000     0.302440000000    -0.135344   
C378     C      0.947260000000     0.604550000000     0.314570000000     0.0382664  
C379     C      0.916250000000     0.568150000000     0.259290000000     0.0254679  
C380     C      0.904100000000     0.547260000000     0.271320000000    -0.0735675  
C381     C      0.888620000000     0.530410000000     0.257360000000     0.038119   
C382     C      0.885570000000     0.533530000000     0.230910000000    -0.135385   
C383     C      0.897480000000     0.554260000000     0.218740000000     0.0382353  
C384     C      0.912250000000     0.571630000000     0.232820000000    -0.0736399  
C385     C      0.925000000000     0.400170000000     0.233700000000    -0.07404    
C386     C      0.918010000000     0.393740000000     0.258870000000     0.0250676  
C387     C      0.895220000000     0.404090000000     0.269230000000    -0.0742899  
C388     C      0.879970000000     0.420840000000     0.254880000000     0.0357919  
C389     C      0.887290000000     0.427770000000     0.229920000000    -0.133762   
C390     C      0.909870000000     0.417050000000     0.219420000000     0.0361342  
C391     C      0.935000000000     0.377080000000     0.274540000000     0.0250244  
C392     C      0.946160000000     0.355010000000     0.264000000000    -0.074095   
C393     C      0.963180000000     0.340060000000     0.278420000000     0.0357519  
C394     C      0.969580000000     0.347000000000     0.303630000000    -0.133342   
C395     C      0.958050000000     0.368850000000     0.314290000000     0.0360083  
C396     C      0.940900000000     0.383660000000     0.299930000000    -0.0738996  
C397     C      0.738450000000     0.382870000000     0.097640000000    -0.0741246  
C398     C      0.764070000000     0.376400000000     0.103900000000     0.0251229  
C399     C      0.774950000000     0.354260000000     0.093230000000    -0.0743029  
C400     C      0.760650000000     0.339130000000     0.076350000000     0.0360222  
C401     C      0.735220000000     0.345920000000     0.069610000000    -0.133812   
C402     C      0.724210000000     0.367850000000     0.080630000000     0.0361947  
C403     C      0.779640000000     0.393240000000     0.120770000000     0.0250482  
C404     C      0.805220000000     0.399580000000     0.114220000000    -0.0740848  
C405     C      0.819440000000     0.416570000000     0.129260000000     0.0361689  
C406     C      0.808460000000     0.427490000000     0.151300000000    -0.133687   
C407     C      0.783080000000     0.420670000000     0.158190000000     0.0359653  
C408     C      0.768790000000     0.403810000000     0.143030000000    -0.0742227  
C409     C      0.649220000000     0.228220000000     0.093910000000    -0.0743511  
C410     C      0.626170000000     0.238270000000     0.104020000000     0.0250028  
C411     C      0.618830000000     0.263200000000     0.097320000000    -0.0741955  
C412     C      0.633860000000     0.277530000000     0.080370000000     0.0360385  
C413     C      0.656660000000     0.267310000000     0.069840000000    -0.133761   
C414     C      0.664340000000     0.242610000000     0.077080000000     0.0357235  
C415     C      0.609240000000     0.222460000000     0.120630000000     0.024977   
C416     C      0.603910000000     0.196990000000     0.114120000000    -0.0742594  
C417     C      0.586720000000     0.182510000000     0.128770000000     0.0360315  
C418     C      0.574580000000     0.193110000000     0.150360000000    -0.133774   
C419     C      0.580430000000     0.218390000000     0.157250000000     0.0358564  
C420     C      0.597500000000     0.232940000000     0.142480000000    -0.0741374  
C421     C      0.404650000000     0.046310000000     0.771410000000    -0.0734541  
C422     C      0.416950000000     0.067170000000     0.759450000000     0.0254549  
C423     C      0.412880000000     0.070830000000     0.733020000000    -0.0735247  
C424     C      0.397910000000     0.053660000000     0.718890000000     0.0382291  
C425     C      0.385870000000     0.032980000000     0.730990000000    -0.135172   
C426     C      0.388970000000     0.029680000000     0.757410000000     0.0381429  
C427     C      0.434500000000     0.084430000000     0.774270000000     0.0254651  
C428     C      0.430860000000     0.088400000000     0.800720000000    -0.0735628  
C429     C      0.448260000000     0.103240000000     0.814790000000     0.0382013  
C430     C      0.469150000000     0.115210000000     0.802630000000    -0.135249   
C431     C      0.472460000000     0.112100000000     0.776220000000     0.0381931  
C432     C      0.455620000000     0.096570000000     0.762270000000    -0.0734664  
C433     C      0.587970000000     0.234640000000     0.900170000000    -0.0735329  
C434     C      0.609080000000     0.222720000000     0.912420000000     0.025434   
C435     C      0.612740000000     0.196340000000     0.908530000000    -0.0735824  
C436     C      0.595360000000     0.182240000000     0.893680000000     0.0380546  
C437     C      0.574480000000     0.194310000000     0.881610000000    -0.135102   
C438     C      0.571150000000     0.220660000000     0.884630000000     0.0380198  
C439     C      0.626610000000     0.237570000000     0.929700000000     0.0252918  
C440     C      0.630640000000     0.263930000000     0.925960000000    -0.0734319  
C441     C      0.645590000000     0.278090000000     0.943140000000     0.0379839  
C442     C      0.657660000000     0.266100000000     0.963910000000    -0.134849   
C443     C      0.654590000000     0.239760000000     0.967290000000     0.0378894  
C444     C      0.638930000000     0.225730000000     0.950650000000    -0.0733733  
C445     C      0.442250000000     0.231970000000     0.887490000000    -0.0741782  
C446     C      0.432060000000     0.222040000000     0.910350000000     0.0249347  
C447     C      0.439030000000     0.197230000000     0.917830000000    -0.074017   
C448     C      0.456390000000     0.182940000000     0.903170000000     0.0358362  
C449     C      0.467080000000     0.193090000000     0.880620000000    -0.133484   
C450     C      0.459500000000     0.217620000000     0.872740000000     0.0355565  
C451     C      0.415330000000     0.237960000000     0.927040000000     0.0249905  
C452     C      0.421940000000     0.263470000000     0.932020000000    -0.0741924  
C453     C      0.407310000000     0.278090000000     0.949030000000     0.0360639  
C454     C      0.385610000000     0.267590000000     0.961380000000    -0.133757   
C455     C      0.378570000000     0.242260000000     0.955890000000     0.0357476  
C456     C      0.393350000000     0.227570000000     0.938980000000    -0.0739483  
C457     C      0.938820000000     0.698850000000     0.416900000000    -0.0741359  
C458     C      0.933470000000     0.724310000000     0.410410000000     0.025088   
C459     C      0.945020000000     0.734750000000     0.388440000000    -0.0740201  
C460     C      0.961920000000     0.720150000000     0.373510000000     0.035759   
C461     C      0.967790000000     0.694870000000     0.380390000000    -0.133541   
C462     C      0.955840000000     0.684320000000     0.402120000000     0.0361461  
C463     C      0.916710000000     0.740130000000     0.427160000000     0.0250495  
C464     C      0.893730000000     0.730100000000     0.437430000000    -0.0742725  
C465     C      0.878810000000     0.744440000000     0.454470000000     0.0357367  
C466     C      0.886640000000     0.769080000000     0.461770000000    -0.133611   
C467     C      0.909360000000     0.779300000000     0.451080000000     0.0360449  
C468     C      0.924180000000     0.765010000000     0.433900000000    -0.0740015  
C469     C      0.768910000000     0.855990000000     0.438820000000    -0.074357   
C470     C      0.779640000000     0.878320000000     0.428410000000     0.0251303  
C471     C      0.805170000000     0.884960000000     0.434850000000    -0.0742136  
C472     C      0.819440000000     0.869920000000     0.451810000000     0.0364026  
C473     C      0.808560000000     0.847820000000     0.462610000000    -0.134143   
C474     C      0.783230000000     0.840860000000     0.455660000000     0.0362445  
C475     C      0.763940000000     0.895210000000     0.411720000000     0.0251982  
C476     C      0.774690000000     0.906130000000     0.389590000000    -0.0743326  
C477     C      0.760220000000     0.922990000000     0.374600000000     0.0361548  
C478     C      0.734760000000     0.929440000000     0.381550000000    -0.134195   
C479     C      0.723900000000     0.918180000000     0.403470000000     0.036532   
C480     C      0.738300000000     0.901200000000     0.418340000000    -0.0743622  
C481     C      0.954570000000     0.735500000000     0.632500000000    -0.0735982  
C482     C      0.933420000000     0.723800000000     0.620120000000     0.02549    
C483     C      0.929390000000     0.697470000000     0.624040000000    -0.0736133  
C484     C      0.946490000000     0.683190000000     0.639020000000     0.0382762  
C485     C      0.967450000000     0.695040000000     0.651180000000    -0.135394   
C486     C      0.971110000000     0.721350000000     0.648170000000     0.038285   
C487     C      0.916270000000     0.738780000000     0.602610000000     0.025541   
C488     C      0.912490000000     0.765190000000     0.606250000000    -0.0737032  
C489     C      0.897870000000     0.779450000000     0.588870000000     0.0384407  
C490     C      0.885920000000     0.767520000000     0.568010000000    -0.135676   
C491     C      0.888770000000     0.741150000000     0.564710000000     0.0384282  
C492     C      0.904100000000     0.727000000000     0.581540000000    -0.0737088  
C493     C      0.098620000000     0.732360000000     0.643240000000    -0.074264   
C494     C      0.109060000000     0.722080000000     0.620660000000     0.0249453  
C495     C      0.102440000000     0.697030000000     0.613660000000    -0.0739861  
C496     C      0.085240000000     0.682810000000     0.628560000000     0.0359496  
C497     C      0.074380000000     0.693260000000     0.650890000000    -0.133533   
C498     C      0.081550000000     0.718080000000     0.658250000000     0.0355742  
C499     C      0.125880000000     0.737780000000     0.603860000000     0.0250456  
C500     C      0.119160000000     0.763130000000     0.598200000000    -0.0741488  
C501     C      0.134090000000     0.777540000000     0.581260000000     0.0362191  
C502     C      0.156210000000     0.767000000000     0.569700000000    -0.133612   
C503     C      0.163290000000     0.741830000000     0.575820000000     0.0358184  
C504     C      0.148220000000     0.727340000000     0.592640000000    -0.0741543  
C505     C      0.118200000000     0.562300000000     0.799010000000    -0.0742863  
C506     C      0.124950000000     0.568370000000     0.773690000000     0.0251769  
C507     C      0.147530000000     0.557720000000     0.763190000000    -0.0743943  
C508     C      0.162810000000     0.541030000000     0.777570000000     0.0361757  
C509     C      0.155730000000     0.534480000000     0.802700000000    -0.13407    
C510     C      0.133370000000     0.545490000000     0.813320000000     0.0364446  
C511     C      0.107960000000     0.585050000000     0.758070000000     0.0250275  
C512     C      0.101680000000     0.578300000000     0.732800000000    -0.0741495  
C513     C      0.084530000000     0.593190000000     0.718520000000     0.0361658  
C514     C      0.073390000000     0.615250000000     0.729130000000    -0.13375    
C515     C      0.080140000000     0.622310000000     0.754210000000     0.0359621  
C516     C      0.097160000000     0.607310000000     0.768550000000    -0.0742188  
C517     C      0.804990000000     0.882750000000     0.597890000000    -0.074199   
C518     C      0.779250000000     0.876420000000     0.603770000000     0.0250828  
C519     C      0.768280000000     0.854550000000     0.592600000000    -0.0742009  
C520     C      0.782610000000     0.839610000000     0.575540000000     0.0359037  
C521     C      0.808140000000     0.846340000000     0.569140000000    -0.133827   
C522     C      0.819240000000     0.867940000000     0.580720000000     0.0362075  
C523     C      0.763650000000     0.893250000000     0.620640000000     0.0249757  
C524     C      0.774380000000     0.903640000000     0.643040000000    -0.0742028  
C525     C      0.760210000000     0.920760000000     0.658010000000     0.035604   
C526     C      0.735040000000     0.928010000000     0.650810000000    -0.133673   
C527     C      0.724130000000     0.917200000000     0.628670000000     0.0359024  
C528     C      0.738250000000     0.899960000000     0.613810000000    -0.0740568  
C529     C      0.620780000000     0.063600000000     0.733360000000    -0.0739877  
C530     C      0.627850000000     0.069600000000     0.758600000000     0.0250375  
C531     C      0.650400000000     0.058680000000     0.768890000000    -0.0741252  
C532     C      0.665330000000     0.041770000000     0.754380000000     0.0356339  
C533     C      0.657880000000     0.035240000000     0.729350000000    -0.133496   
C534     C      0.635570000000     0.046550000000     0.718930000000     0.0360305  
C535     C      0.611080000000     0.086340000000     0.774420000000     0.0250642  
C536     C      0.600250000000     0.108660000000     0.764080000000    -0.074192   
C537     C      0.583160000000     0.123520000000     0.778490000000     0.0356546  
C538     C      0.576350000000     0.116260000000     0.803500000000    -0.133609   
C539     C      0.587640000000     0.094220000000     0.814010000000     0.0360484  
C540     C      0.604860000000     0.079470000000     0.799660000000    -0.0740615  
C541     C      0.737250000000     0.071930000000     0.623520000000    -0.0736472  
C542     C      0.764060000000     0.068710000000     0.619550000000     0.0254982  
C543     C      0.776480000000     0.048010000000     0.631630000000    -0.073557   
C544     C      0.762600000000     0.031170000000     0.647150000000     0.0381956  
C545     C      0.735840000000     0.034080000000     0.650300000000    -0.13525    
C546     C      0.723250000000     0.054540000000     0.638350000000     0.0381302  
C547     C      0.778840000000     0.086320000000     0.602360000000     0.0254623  
C548     C      0.766630000000     0.098370000000     0.581470000000    -0.073486   
C549     C      0.780630000000     0.114100000000     0.564910000000     0.038084   
C550     C      0.807300000000     0.117510000000     0.568310000000    -0.135254   
C551     C      0.819630000000     0.105720000000     0.589040000000     0.0383242  
C552     C      0.805500000000     0.090690000000     0.606140000000    -0.0736485  
C553     C      0.613990000000     0.873180000000     0.799880000000    -0.0737254  
C554     C      0.609900000000     0.877230000000     0.773510000000     0.0255552  
C555     C      0.588760000000     0.864900000000     0.761750000000    -0.0736717  
C556     C      0.572260000000     0.849190000000     0.775890000000     0.0383174  
C557     C      0.575960000000     0.846060000000     0.802250000000    -0.135472   
C558     C      0.596930000000     0.858150000000     0.814150000000     0.0383518  
C559     C      0.627010000000     0.894790000000     0.758540000000     0.0254302  
C560     C      0.639210000000     0.915720000000     0.770460000000    -0.0735761  
C561     C      0.654570000000     0.932560000000     0.756370000000     0.0381918  
C562     C      0.657440000000     0.929390000000     0.729910000000    -0.135354   
C563     C      0.645420000000     0.908690000000     0.717830000000     0.0381813  
C564     C      0.630760000000     0.891320000000     0.732040000000    -0.0735484  
C565     C      0.395060000000     0.904040000000     0.769670000000    -0.074315   
C566     C      0.417650000000     0.893360000000     0.759200000000     0.0250537  
C567     C      0.424490000000     0.899500000000     0.733930000000    -0.074125   
C568     C      0.409410000000     0.916400000000     0.719620000000     0.0362901  
C569     C      0.387040000000     0.927420000000     0.730210000000    -0.133947   
C570     C      0.379860000000     0.920800000000     0.755290000000     0.0358623  
C571     C      0.434570000000     0.876620000000     0.774840000000     0.025075   
C572     C      0.440870000000     0.883350000000     0.800100000000    -0.0740818  
C573     C      0.458040000000     0.868450000000     0.814360000000     0.0361235  
C574     C      0.469160000000     0.846390000000     0.803730000000    -0.133645   
C575     C      0.462340000000     0.839320000000     0.778670000000     0.0357965  
C576     C      0.445310000000     0.854330000000     0.764350000000    -0.0743459  
C577     C      0.445690000000     0.729090000000     0.889570000000    -0.0742566  
C578     C      0.434970000000     0.739450000000     0.911980000000     0.0251253  
C579     C      0.441380000000     0.764570000000     0.918890000000    -0.0740379  
C580     C      0.458620000000     0.778820000000     0.904050000000     0.0361422  
C581     C      0.469710000000     0.768310000000     0.881860000000    -0.133881   
C582     C      0.462800000000     0.743390000000     0.874620000000     0.0360813  
C583     C      0.418000000000     0.723800000000     0.928670000000     0.0250099  
C584     C      0.395520000000     0.734250000000     0.939590000000    -0.0740883  
C585     C      0.380310000000     0.719840000000     0.956330000000     0.0359128  
C586     C      0.387380000000     0.694720000000     0.962680000000    -0.133629   
C587     C      0.409630000000     0.684140000000     0.951390000000     0.0361853  
C588     C      0.424710000000     0.698490000000     0.934530000000    -0.0739734  
C589     C      0.600940000000     0.728530000000     0.888510000000    -0.0740556  
C590     C      0.611950000000     0.738910000000     0.910790000000     0.0250318  
C591     C      0.606050000000     0.764210000000     0.917450000000    -0.0740241  
C592     C      0.588950000000     0.778580000000     0.902600000000     0.0360994  
C593     C      0.577440000000     0.768030000000     0.880640000000    -0.133583   
C594     C      0.583940000000     0.742960000000     0.873540000000     0.0357145  
C595     C      0.628500000000     0.723100000000     0.927760000000     0.0250186  
C596     C      0.621150000000     0.698040000000     0.933930000000    -0.0740532  
C597     C      0.635620000000     0.683690000000     0.951320000000     0.0360321  
C598     C      0.657870000000     0.694010000000     0.962840000000    -0.133395   
C599     C      0.665630000000     0.718830000000     0.956140000000     0.0356925  
C600     C      0.651040000000     0.733250000000     0.938850000000    -0.0739839  
C601     C      0.772770000000     0.607340000000     0.095610000000    -0.0742704  
C602     C      0.762140000000     0.584790000000     0.105660000000     0.0250133  
C603     C      0.736820000000     0.577900000000     0.098710000000    -0.0740557  
C604     C      0.722710000000     0.592850000000     0.081520000000     0.0359805  
C605     C      0.733540000000     0.615120000000     0.071020000000    -0.133594   
C606     C      0.758610000000     0.622380000000     0.078550000000     0.0356609  
C607     C      0.777820000000     0.567900000000     0.122380000000     0.0250001  
C608     C      0.803640000000     0.562350000000     0.116030000000    -0.0741698  
C609     C      0.818080000000     0.545340000000     0.130830000000     0.0361814  
C610     C      0.807100000000     0.533580000000     0.152430000000    -0.133697   
C611     C      0.781460000000     0.539580000000     0.159130000000     0.0358385  
C612     C      0.766930000000     0.556470000000     0.144200000000    -0.0741109  
C613     C      0.598540000000     0.729130000000     0.143140000000    -0.0745662  
C614     C      0.609430000000     0.739450000000     0.120790000000     0.0252682  
C615     C      0.603580000000     0.764750000000     0.114090000000    -0.074369   
C616     C      0.586680000000     0.779230000000     0.129050000000     0.0365854  
C617     C      0.575360000000     0.768770000000     0.151140000000    -0.134378   
C618     C      0.581760000000     0.743670000000     0.158210000000     0.036375   
C619     C      0.626020000000     0.723610000000     0.103940000000     0.0251035  
C620     C      0.648730000000     0.733710000000     0.093180000000    -0.0743846  
C621     C      0.663620000000     0.719180000000     0.076270000000     0.036202   
C622     C      0.656000000000     0.694300000000     0.069610000000    -0.134146   
C623     C      0.633500000000     0.684070000000     0.080710000000     0.0363656  
C624     C      0.618720000000     0.698540000000     0.097750000000    -0.0742088  
C625     C      0.937100000000     0.580170000000     0.733170000000    -0.0740015  
C626     C      0.931190000000     0.586850000000     0.758530000000     0.0249843  
C627     C      0.942230000000     0.609060000000     0.768930000000    -0.0739572  
C628     C      0.959260000000     0.623950000000     0.754460000000     0.035688   
C629     C      0.965760000000     0.616850000000     0.729330000000    -0.1334     
C630     C      0.954230000000     0.594950000000     0.718760000000     0.0360069  
C631     C      0.914600000000     0.569960000000     0.774390000000     0.0250916  
C632     C      0.892070000000     0.558910000000     0.764180000000    -0.0741181  
C633     C      0.877440000000     0.541690000000     0.778640000000     0.0357784  
C634     C      0.885150000000     0.535010000000     0.803550000000    -0.133693   
C635     C      0.907390000000     0.546510000000     0.813920000000     0.0361463  
C636     C      0.921890000000     0.563830000000     0.799540000000    -0.0740908  
C637     C      0.766530000000     0.546060000000     0.901200000000    -0.0738475  
C638     C      0.778730000000     0.566940000000     0.913200000000     0.0256659  
C639     C      0.805430000000     0.570620000000     0.908990000000    -0.0738988  
C640     C      0.819600000000     0.553450000000     0.894080000000     0.038682   
C641     C      0.807260000000     0.532770000000     0.882290000000    -0.136025   
C642     C      0.780570000000     0.529430000000     0.885610000000     0.038574   
C643     C      0.763880000000     0.584250000000     0.930590000000     0.0255363  
C644     C      0.737130000000     0.588330000000     0.927040000000    -0.0737607  
C645     C      0.723000000000     0.603230000000     0.944260000000     0.0385127  
C646     C      0.735420000000     0.615130000000     0.964880000000    -0.135862   
C647     C      0.762130000000     0.611900000000     0.968110000000     0.0385856  
C648     C      0.776140000000     0.596330000000     0.951430000000    -0.0737786  
C649     C      0.770400000000     0.402010000000     0.889750000000    -0.0742214  
C650     C      0.780980000000     0.391940000000     0.912360000000     0.0250155  
C651     C      0.806220000000     0.399000000000     0.919430000000    -0.0739598  
C652     C      0.820310000000     0.416290000000     0.904580000000     0.0359593  
C653     C      0.809530000000     0.426800000000     0.882240000000    -0.133532   
C654     C      0.784540000000     0.419170000000     0.874810000000     0.0356863  
C655     C      0.765330000000     0.375080000000     0.929150000000     0.0250893  
C656     C      0.739450000000     0.381220000000     0.934630000000    -0.0741647  
C657     C      0.725040000000     0.366300000000     0.951570000000     0.0362261  
C658     C      0.736110000000     0.344790000000     0.963320000000    -0.133519   
C659     C      0.761810000000     0.338280000000     0.957370000000     0.0358148  
C660     C      0.776300000000     0.353330000000     0.940540000000    -0.0740746  
C661     C      0.925010000000     0.400880000000     0.799190000000    -0.0742551  
C662     C      0.917940000000     0.394750000000     0.773970000000     0.025256   
C663     C      0.895260000000     0.405390000000     0.763700000000    -0.0744718  
C664     C      0.880150000000     0.422110000000     0.778220000000     0.0363914  
C665     C      0.887530000000     0.428700000000     0.803250000000    -0.134314   
C666     C      0.910020000000     0.417720000000     0.813640000000     0.0365721  
C667     C      0.934720000000     0.378030000000     0.758190000000     0.0252137  
C668     C      0.940710000000     0.384750000000     0.732850000000    -0.0742894  
C669     C      0.957670000000     0.369820000000     0.718400000000     0.0365828  
C670     C      0.968880000000     0.347750000000     0.728900000000    -0.134146   
C671     C      0.962400000000     0.340710000000     0.754060000000     0.0363063  
C672     C      0.945580000000     0.355750000000     0.768570000000    -0.074354   
H1       H      0.105670000000     0.210370000000     0.383440000000     0.0460341  
H2       H      0.075850000000     0.235460000000     0.357460000000     0.028845   
H3       H      0.083540000000     0.298490000000     0.410250000000     0.0289209  
H4       H      0.113140000000     0.273270000000     0.436260000000     0.0462919  
H5       H      0.156800000000     0.253410000000     0.435830000000     0.046155   
H6       H      0.182450000000     0.228000000000     0.465670000000     0.028796   
H7       H      0.129490000000     0.164920000000     0.455860000000     0.0288249  
H8       H      0.103850000000     0.190390000000     0.426310000000     0.0462744  
H9       H      0.245580000000     0.043180000000     0.402370000000     0.045903   
H10      H      0.269750000000     0.014520000000     0.374750000000     0.025231   
H11      H      0.339530000000     0.057190000000     0.389210000000     0.0246926  
H12      H      0.315210000000     0.087480000000     0.415050000000     0.0457211  
H13      H      0.296460000000     0.093860000000     0.453510000000     0.0459339  
H14      H      0.272370000000     0.120890000000     0.482800000000     0.0251302  
H15      H      0.202290000000     0.106460000000     0.440500000000     0.0247058  
H16      H      0.226500000000     0.081230000000     0.409600000000     0.0457633  
H17      H      0.933150000000     0.273820000000     0.436110000000     0.046398   
H18      H      0.962850000000     0.298850000000     0.410030000000     0.0290238  
H19      H      0.971310000000     0.235220000000     0.358100000000     0.0289598  
H20      H      0.941390000000     0.210300000000     0.384160000000     0.0462494  
H21      H      0.889490000000     0.254120000000     0.435010000000     0.0461738  
H22      H      0.863060000000     0.229220000000     0.464540000000     0.0289512  
H23      H      0.915910000000     0.165760000000     0.456740000000     0.0290443  
H24      H      0.942360000000     0.190780000000     0.427430000000     0.0464754  
H25      H      0.887330000000     0.254720000000     0.597290000000     0.0461805  
H26      H      0.861480000000     0.229620000000     0.567370000000     0.0288481  
H27      H      0.914040000000     0.166160000000     0.576800000000     0.0289717  
H28      H      0.939890000000     0.191330000000     0.606430000000     0.0464425  
H29      H      0.938410000000     0.211230000000     0.649370000000     0.0461944  
H30      H      0.968580000000     0.236060000000     0.675220000000     0.0290245  
H31      H      0.961020000000     0.299230000000     0.622590000000     0.0290774  
H32      H      0.931080000000     0.274270000000     0.596710000000     0.0464054  
H33      H      0.102590000000     0.209410000000     0.648390000000     0.0462242  
H34      H      0.072920000000     0.234760000000     0.674320000000     0.0287907  
H35      H      0.081920000000     0.298010000000     0.621990000000     0.0288064  
H36      H      0.111370000000     0.272540000000     0.596050000000     0.046416   
H37      H      0.101340000000     0.189740000000     0.605110000000     0.0463805  
H38      H      0.127590000000     0.164360000000     0.575910000000     0.0289244  
H39      H      0.181170000000     0.227220000000     0.568140000000     0.0289365  
H40      H      0.154940000000     0.252470000000     0.597540000000     0.0462466  
H41      H      0.438240000000     0.070730000000     0.304960000000     0.0464117  
H42      H      0.412390000000     0.041590000000     0.330650000000     0.028916   
H43      H      0.360570000000     0.030210000000     0.266750000000     0.0288354  
H44      H      0.386470000000     0.059630000000     0.241090000000     0.0462051  
H45      H      0.430650000000     0.059570000000     0.221860000000     0.0464374  
H46      H      0.460450000000     0.085630000000     0.196830000000     0.0291778  
H47      H      0.465910000000     0.139180000000     0.259490000000     0.0290086  
H48      H      0.435970000000     0.113180000000     0.284340000000     0.0460436  
H49      H      0.382760000000     0.224360000000     0.113920000000     0.047449   
H50      H      0.356270000000     0.250130000000     0.084720000000     0.0273236  
H51      H      0.425670000000     0.284480000000     0.054050000000     0.0277496  
H52      H      0.451950000000     0.258200000000     0.082700000000     0.0478132  
H53      H      0.453210000000     0.203350000000     0.084710000000     0.047836   
H54      H      0.481430000000     0.176870000000     0.111240000000     0.0278467  
H55      H      0.450340000000     0.212470000000     0.179180000000     0.0273108  
H56      H      0.421530000000     0.238470000000     0.152410000000     0.0474561  
H57      H      0.251850000000     0.350320000000     0.098430000000     0.0460189  
H58      H      0.276390000000     0.323930000000     0.068700000000     0.0287923  
H59      H      0.340430000000     0.376810000000     0.073210000000     0.0291458  
H60      H      0.315700000000     0.403270000000     0.102820000000     0.0463999  
H61      H      0.297020000000     0.403040000000     0.146820000000     0.0462298  
H62      H      0.271780000000     0.432300000000     0.173260000000     0.0287379  
H63      H      0.206080000000     0.422090000000     0.123100000000     0.0288347  
H64      H      0.231390000000     0.393070000000     0.096690000000     0.0462784  
H65      H      0.157050000000     0.399960000000     0.288140000000     0.0461525  
H66      H      0.182960000000     0.429710000000     0.262980000000     0.0288178  
H67      H      0.129920000000     0.421080000000     0.199610000000     0.0288643  
H68      H      0.103990000000     0.391580000000     0.224880000000     0.0463213  
H69      H      0.113440000000     0.400860000000     0.308030000000     0.0463436  
H70      H      0.083780000000     0.374970000000     0.333300000000     0.0288902  
H71      H      0.075460000000     0.322730000000     0.269840000000     0.028767   
H72      H      0.105360000000     0.348600000000     0.244690000000     0.0461272  
H73      H      0.249400000000     0.614460000000     0.097630000000     0.0460928  
H74      H      0.274320000000     0.640320000000     0.067620000000     0.0287477  
H75      H      0.339150000000     0.588830000000     0.075840000000     0.0289654  
H76      H      0.314120000000     0.562960000000     0.105580000000     0.0463949  
H77      H      0.229810000000     0.571250000000     0.097040000000     0.0463501  
H78      H      0.204910000000     0.541700000000     0.123250000000     0.0288829  
H79      H      0.269720000000     0.534370000000     0.175030000000     0.0288598  
H80      H      0.294500000000     0.564160000000     0.148850000000     0.0461771  
H81      H      0.156130000000     0.400520000000     0.743100000000     0.0461367  
H82      H      0.181830000000     0.430470000000     0.768290000000     0.0288515  
H83      H      0.128980000000     0.421230000000     0.831720000000     0.0288508  
H84      H      0.103290000000     0.391560000000     0.806460000000     0.0463525  
H85      H      0.104970000000     0.348660000000     0.786730000000     0.0461608  
H86      H      0.074990000000     0.322670000000     0.761810000000     0.0287907  
H87      H      0.082780000000     0.374840000000     0.698220000000     0.0288996  
H88      H      0.112510000000     0.400850000000     0.723270000000     0.046373   
H89      H      0.248680000000     0.613510000000     0.935390000000     0.0461856  
H90      H      0.273890000000     0.639670000000     0.964900000000     0.0289279  
H91      H      0.339000000000     0.588690000000     0.955810000000     0.0289953  
H92      H      0.313700000000     0.562530000000     0.926510000000     0.0463226  
H93      H      0.293500000000     0.563860000000     0.883450000000     0.0460751  
H94      H      0.268560000000     0.534260000000     0.857220000000     0.0288762  
H95      H      0.204340000000     0.540590000000     0.909850000000     0.0290417  
H96      H      0.229420000000     0.570010000000     0.936110000000     0.0464096  
H97      H      0.315640000000     0.380640000000     0.908050000000     0.0458108  
H98      H      0.340330000000     0.355180000000     0.938380000000     0.0246612  
H99      H      0.271060000000     0.341000000000     0.982040000000     0.0251167  
H100     H      0.246520000000     0.368270000000     0.953320000000     0.0459124  
H101     H      0.227030000000     0.375210000000     0.915290000000     0.0458391  
H102     H      0.202530000000     0.405830000000     0.890000000000     0.0247957  
H103     H      0.272440000000     0.447930000000     0.874510000000     0.0251759  
H104     H      0.296820000000     0.418930000000     0.901580000000     0.0459227  
H105     H      0.388420000000     0.753280000000     0.097450000000     0.046097   
H106     H      0.362510000000     0.728290000000     0.067540000000     0.028809   
H107     H      0.415840000000     0.665240000000     0.075580000000     0.0289004  
H108     H      0.441770000000     0.690360000000     0.105260000000     0.0463702  
H109     H      0.440350000000     0.709750000000     0.148560000000     0.0462046  
H110     H      0.469990000000     0.734830000000     0.174800000000     0.0287916  
H111     H      0.461290000000     0.798490000000     0.122940000000     0.0288991  
H112     H      0.431890000000     0.773310000000     0.096700000000     0.0462762  
H113     H      0.439400000000     0.848690000000     0.287950000000     0.0462249  
H114     H      0.469470000000     0.822830000000     0.262990000000     0.0288225  
H115     H      0.460820000000     0.874570000000     0.199150000000     0.0288165  
H116     H      0.430970000000     0.900440000000     0.224230000000     0.0464052  
H117     H      0.440470000000     0.891970000000     0.307370000000     0.0464206  
H118     H      0.414160000000     0.921370000000     0.332390000000     0.0288692  
H119     H      0.360970000000     0.928700000000     0.268970000000     0.0287964  
H120     H      0.387270000000     0.899080000000     0.244070000000     0.046191   
H121     H      0.729560000000     0.071770000000     0.435260000000     0.0463726  
H122     H      0.704250000000     0.042370000000     0.409250000000     0.0289999  
H123     H      0.769120000000     0.033460000000     0.357790000000     0.0289455  
H124     H      0.794330000000     0.063080000000     0.383790000000     0.0462558  
H125     H      0.813800000000     0.062450000000     0.427320000000     0.0464918  
H126     H      0.838930000000     0.088720000000     0.456700000000     0.0290766  
H127     H      0.774600000000     0.141040000000     0.463280000000     0.0288356  
H128     H      0.749610000000     0.114810000000     0.433710000000     0.0461696  
H129     H      0.654740000000     0.900640000000     0.244630000000     0.0461096  
H130     H      0.680640000000     0.930550000000     0.269590000000     0.0288244  
H131     H      0.627350000000     0.922680000000     0.332860000000     0.0288859  
H132     H      0.601430000000     0.892990000000     0.307770000000     0.0463493  
H133     H      0.602860000000     0.849750000000     0.288450000000     0.0461393  
H134     H      0.573260000000     0.823470000000     0.263360000000     0.0288527  
H135     H      0.581950000000     0.874970000000     0.199350000000     0.0288784  
H136     H      0.611290000000     0.901260000000     0.224540000000     0.0463076  
H137     H      0.600600000000     0.070720000000     0.307490000000     0.0463709  
H138     H      0.626970000000     0.041580000000     0.332750000000     0.0290558  
H139     H      0.680370000000     0.034070000000     0.269530000000     0.0289483  
H140     H      0.654040000000     0.063460000000     0.244390000000     0.0461638  
H141     H      0.601110000000     0.113760000000     0.287730000000     0.0461693  
H142     H      0.571050000000     0.139230000000     0.262320000000     0.0287526  
H143     H      0.580850000000     0.087230000000     0.198870000000     0.0289536  
H144     H      0.610630000000     0.061760000000     0.224360000000     0.0464652  
H145     H      0.228640000000     0.060010000000     0.605310000000     0.0464811  
H146     H      0.203980000000     0.086210000000     0.575470000000     0.0290764  
H147     H      0.268120000000     0.138920000000     0.570350000000     0.0288673  
H148     H      0.292610000000     0.112780000000     0.600380000000     0.0461282  
H149     H      0.312960000000     0.070080000000     0.598910000000     0.0463296  
H150     H      0.338130000000     0.040760000000     0.625060000000     0.0289772  
H151     H      0.272530000000     0.030610000000     0.675350000000     0.0288861  
H152     H      0.247400000000     0.060220000000     0.649170000000     0.0462242  
H153     H      0.294120000000     0.848310000000     0.598070000000     0.0461678  
H154     H      0.269090000000     0.822210000000     0.568370000000     0.0288403  
H155     H      0.204100000000     0.873480000000     0.576770000000     0.0288923  
H156     H      0.229240000000     0.899600000000     0.606220000000     0.046311   
H157     H      0.313590000000     0.891590000000     0.597300000000     0.0463409  
H158     H      0.338630000000     0.921050000000     0.623530000000     0.0289957  
H159     H      0.274010000000     0.928240000000     0.675560000000     0.0289348  
H160     H      0.249110000000     0.898560000000     0.649380000000     0.0461375  
H161     H      0.228830000000     0.899880000000     0.427440000000     0.0461967  
H162     H      0.203870000000     0.873560000000     0.456860000000     0.0289311  
H163     H      0.269450000000     0.823150000000     0.465830000000     0.0288055  
H164     H      0.294330000000     0.849470000000     0.436170000000     0.0461595  
H165     H      0.313240000000     0.893100000000     0.436600000000     0.0463401  
H166     H      0.337950000000     0.922580000000     0.410080000000     0.0290109  
H167     H      0.273360000000     0.928320000000     0.357830000000     0.0287597  
H168     H      0.248790000000     0.898640000000     0.384320000000     0.0460724  
H169     H      0.111000000000     0.688980000000     0.436140000000     0.0463316  
H170     H      0.081470000000     0.663950000000     0.409850000000     0.0289359  
H171     H      0.073900000000     0.727380000000     0.357540000000     0.0288713  
H172     H      0.103630000000     0.752290000000     0.383800000000     0.0461118  
H173     H      0.154780000000     0.708680000000     0.435490000000     0.0461902  
H174     H      0.180800000000     0.733740000000     0.465270000000     0.0288261  
H175     H      0.127970000000     0.797100000000     0.456530000000     0.0288575  
H176     H      0.101950000000     0.771940000000     0.426980000000     0.0463117  
H177     H      0.110610000000     0.560590000000     0.308510000000     0.046378   
H178     H      0.080970000000     0.586900000000     0.333440000000     0.0289388  
H179     H      0.074490000000     0.639420000000     0.270010000000     0.0287036  
H180     H      0.104300000000     0.613160000000     0.245230000000     0.0461404  
H181     H      0.102520000000     0.570180000000     0.225300000000     0.0462555  
H182     H      0.128830000000     0.540980000000     0.200050000000     0.0288651  
H183     H      0.181020000000     0.531720000000     0.264020000000     0.0287802  
H184     H      0.154690000000     0.561150000000     0.289190000000     0.0461327  
H185     H      0.958870000000     0.594880000000     0.242000000000     0.0458982  
H186     H      0.987760000000     0.622210000000     0.266330000000     0.0252708  
H187     H      0.944200000000     0.606900000000     0.334940000000     0.0247259  
H188     H      0.913630000000     0.581350000000     0.310460000000     0.045763   
H189     H      0.907010000000     0.543330000000     0.291420000000     0.0459021  
H190     H      0.879820000000     0.514350000000     0.267080000000     0.0250718  
H191     H      0.895160000000     0.557140000000     0.198350000000     0.0246839  
H192     H      0.920500000000     0.587750000000     0.222810000000     0.0457441  
H193     H      0.889200000000     0.399280000000     0.288480000000     0.0461498  
H194     H      0.862700000000     0.428700000000     0.263570000000     0.028767   
H195     H      0.916070000000     0.421930000000     0.200250000000     0.0290356  
H196     H      0.942590000000     0.392690000000     0.225280000000     0.046468   
H197     H      0.941780000000     0.349310000000     0.244570000000     0.0462231  
H198     H      0.971690000000     0.323350000000     0.269620000000     0.0289882  
H199     H      0.962500000000     0.374730000000     0.333650000000     0.0290335  
H200     H      0.932800000000     0.400700000000     0.308510000000     0.0462878  
H201     H      0.794560000000     0.348650000000     0.097910000000     0.0461908  
H202     H      0.769730000000     0.322350000000     0.068250000000     0.0288836  
H203     H      0.704670000000     0.373640000000     0.075900000000     0.0289648  
H204     H      0.729620000000     0.399960000000     0.105350000000     0.0463963  
H205     H      0.814020000000     0.391950000000     0.097040000000     0.046347   
H206     H      0.838950000000     0.421360000000     0.123410000000     0.0289737  
H207     H      0.774020000000     0.428690000000     0.175050000000     0.0289631  
H208     H      0.749220000000     0.399060000000     0.148710000000     0.0462217  
H209     H      0.601050000000     0.271380000000     0.104590000000     0.0464157  
H210     H      0.627380000000     0.296500000000     0.075250000000     0.0290163  
H211     H      0.681810000000     0.234150000000     0.069380000000     0.0287661  
H212     H      0.655510000000     0.209160000000     0.098940000000     0.0460804  
H213     H      0.612440000000     0.188460000000     0.097240000000     0.0461345  
H214     H      0.582700000000     0.163090000000     0.122910000000     0.0287664  
H215     H      0.571450000000     0.227160000000     0.173780000000     0.0291435  
H216     H      0.601450000000     0.252440000000     0.148120000000     0.046248   
H217     H      0.421240000000     0.086930000000     0.723060000000     0.0457467  
H218     H      0.395560000000     0.056660000000     0.698520000000     0.0246709  
H219     H      0.380080000000     0.013640000000     0.767080000000     0.0252059  
H220     H      0.407600000000     0.042250000000     0.791480000000     0.0459948  
H221     H      0.414570000000     0.080120000000     0.810710000000     0.0458494  
H222     H      0.445220000000     0.105600000000     0.835160000000     0.0248973  
H223     H      0.488670000000     0.120950000000     0.766500000000     0.0251971  
H224     H      0.459710000000     0.093670000000     0.742180000000     0.0458881  
H225     H      0.629020000000     0.186410000000     0.916890000000     0.0457827  
H226     H      0.598420000000     0.161920000000     0.891390000000     0.0248562  
H227     H      0.554950000000     0.230320000000     0.875710000000     0.0252285  
H228     H      0.583860000000     0.254670000000     0.903010000000     0.0458344  
H229     H      0.622270000000     0.273800000000     0.909780000000     0.0456785  
H230     H      0.647920000000     0.298400000000     0.940060000000     0.024708   
H231     H      0.663500000000     0.230180000000     0.983410000000     0.0252208  
H232     H      0.636010000000     0.205720000000     0.954780000000     0.0458496  
H233     H      0.431720000000     0.189140000000     0.935470000000     0.0464609  
H234     H      0.461750000000     0.164080000000     0.909780000000     0.0291556  
H235     H      0.467280000000     0.226020000000     0.855450000000     0.0289632  
H236     H      0.437010000000     0.250930000000     0.881090000000     0.0460729  
H237     H      0.438930000000     0.271950000000     0.923350000000     0.0461701  
H238     H      0.413270000000     0.297550000000     0.952750000000     0.0288304  
H239     H      0.361960000000     0.233580000000     0.965060000000     0.0291777  
H240     H      0.387640000000     0.208020000000     0.935330000000     0.0462645  
H241     H      0.941070000000     0.754260000000     0.382830000000     0.0461893  
H242     H      0.970780000000     0.728870000000     0.356900000000     0.0288971  
H243     H      0.959880000000     0.664910000000     0.407960000000     0.028951   
H244     H      0.930440000000     0.690340000000     0.433860000000     0.0463592  
H245     H      0.887340000000     0.711080000000     0.432370000000     0.046098   
H246     H      0.861390000000     0.735990000000     0.462290000000     0.0288567  
H247     H      0.915940000000     0.798230000000     0.456230000000     0.0290956  
H248     H      0.941920000000     0.773170000000     0.426500000000     0.0464896  
H249     H      0.813870000000     0.902200000000     0.427330000000     0.0463748  
H250     H      0.838910000000     0.875840000000     0.456700000000     0.0289301  
H251     H      0.774250000000     0.823940000000     0.463560000000     0.0289814  
H252     H      0.749370000000     0.850250000000     0.433990000000     0.046202   
H253     H      0.794330000000     0.901660000000     0.383880000000     0.0461659  
H254     H      0.769180000000     0.931300000000     0.357830000000     0.0287316  
H255     H      0.704330000000     0.922690000000     0.409370000000     0.0288743  
H256     H      0.729580000000     0.893300000000     0.435430000000     0.0464408  
H257     H      0.913050000000     0.687720000000     0.615580000000     0.0457743  
H258     H      0.943210000000     0.662910000000     0.641290000000     0.0247062  
H259     H      0.987390000000     0.730820000000     0.657150000000     0.0252489  
H260     H      0.958940000000     0.755470000000     0.629650000000     0.0459737  
H261     H      0.920770000000     0.775010000000     0.622500000000     0.045807   
H262     H      0.895690000000     0.799780000000     0.591900000000     0.0245819  
H263     H      0.879920000000     0.731610000000     0.548530000000     0.0249942  
H264     H      0.906870000000     0.706960000000     0.577490000000     0.0459734  
H265     H      0.109980000000     0.688680000000     0.596230000000     0.0463449  
H266     H      0.080180000000     0.663740000000     0.622350000000     0.0289976  
H267     H      0.073600000000     0.726720000000     0.675340000000     0.0287744  
H268     H      0.103580000000     0.751510000000     0.649260000000     0.0460857  
H269     H      0.101910000000     0.771630000000     0.606320000000     0.0462577  
H270     H      0.128090000000     0.796880000000     0.577010000000     0.0288905  
H271     H      0.180210000000     0.733110000000     0.567280000000     0.0287755  
H272     H      0.154010000000     0.707930000000     0.596830000000     0.0461553  
H273     H      0.153360000000     0.562260000000     0.743820000000     0.0462402  
H274     H      0.179930000000     0.532930000000     0.768790000000     0.0288795  
H275     H      0.127350000000     0.540890000000     0.832630000000     0.0288722  
H276     H      0.100770000000     0.570010000000     0.807540000000     0.0463628  
H277     H      0.109490000000     0.561110000000     0.724290000000     0.0463643  
H278     H      0.079790000000     0.587210000000     0.699250000000     0.0289043  
H279     H      0.071950000000     0.639200000000     0.762980000000     0.028938   
H280     H      0.101850000000     0.613130000000     0.787890000000     0.0461301  
H281     H      0.748570000000     0.849060000000     0.596970000000     0.0461826  
H282     H      0.773470000000     0.823080000000     0.567000000000     0.028809   
H283     H      0.838880000000     0.873660000000     0.576290000000     0.0288934  
H284     H      0.813900000000     0.899630000000     0.605960000000     0.0462676  
H285     H      0.793820000000     0.898620000000     0.648930000000     0.0460808  
H286     H      0.769190000000     0.928670000000     0.674960000000     0.0288166  
H287     H      0.704780000000     0.922300000000     0.622580000000     0.0290257  
H288     H      0.729540000000     0.892490000000     0.596520000000     0.0463553  
H289     H      0.656460000000     0.063150000000     0.788210000000     0.0461886  
H290     H      0.682410000000     0.033430000000     0.763000000000     0.0288598  
H291     H      0.629290000000     0.042000000000     0.699700000000     0.029042   
H292     H      0.603360000000     0.071500000000     0.724980000000     0.046387   
H293     H      0.604890000000     0.114570000000     0.744760000000     0.0461338  
H294     H      0.574860000000     0.140400000000     0.769810000000     0.0288446  
H295     H      0.582880000000     0.088090000000     0.833230000000     0.0290428  
H296     H      0.612700000000     0.062250000000     0.808080000000     0.0464771  
H297     H      0.796850000000     0.044260000000     0.628710000000     0.0459698  
H298     H      0.772660000000     0.015310000000     0.655970000000     0.0254424  
H299     H      0.702600000000     0.057270000000     0.640740000000     0.0249236  
H300     H      0.726930000000     0.087870000000     0.615260000000     0.0457887  
H301     H      0.746370000000     0.095200000000     0.577330000000     0.0458597  
H302     H      0.770770000000     0.122810000000     0.548830000000     0.0250679  
H303     H      0.840200000000     0.108310000000     0.592130000000     0.0247205  
H304     H      0.815640000000     0.082520000000     0.622280000000     0.0458181  
H305     H      0.584360000000     0.867830000000     0.741740000000     0.0459151  
H306     H      0.555980000000     0.840260000000     0.766370000000     0.0250603  
H307     H      0.600240000000     0.855800000000     0.834480000000     0.0246298  
H308     H      0.630330000000     0.881590000000     0.809670000000     0.04581    
H309     H      0.636450000000     0.919660000000     0.790580000000     0.0458863  
H310     H      0.663470000000     0.948610000000     0.766020000000     0.0250295  
H311     H      0.647610000000     0.905780000000     0.697430000000     0.0247173  
H312     H      0.622450000000     0.875180000000     0.722100000000     0.0457385  
H313     H      0.441930000000     0.891770000000     0.725430000000     0.0463741  
H314     H      0.415500000000     0.921040000000     0.700350000000     0.0289434  
H315     H      0.362740000000     0.928920000000     0.764040000000     0.0286557  
H316     H      0.389170000000     0.899460000000     0.789020000000     0.0461402  
H317     H      0.433090000000     0.900550000000     0.808620000000     0.0463777  
H318     H      0.462830000000     0.874440000000     0.833610000000     0.0290129  
H319     H      0.470530000000     0.822430000000     0.769880000000     0.0287752  
H320     H      0.440610000000     0.848530000000     0.745020000000     0.0461858  
H321     H      0.433640000000     0.772990000000     0.936200000000     0.0464127  
H322     H      0.463470000000     0.797960000000     0.910170000000     0.029      
H323     H      0.470930000000     0.734700000000     0.857630000000     0.028982   
H324     H      0.440900000000     0.709870000000     0.883610000000     0.04618    
H325     H      0.389730000000     0.753630000000     0.935220000000     0.0461678  
H326     H      0.363290000000     0.728580000000     0.964660000000     0.0288991  
H327     H      0.415630000000     0.664850000000     0.955820000000     0.0290236  
H328     H      0.442070000000     0.689980000000     0.926620000000     0.0463338  
H329     H      0.614010000000     0.772680000000     0.934640000000     0.0463607  
H330     H      0.584440000000     0.797850000000     0.908610000000     0.0289871  
H331     H      0.575480000000     0.734250000000     0.856720000000     0.0288943  
H332     H      0.605330000000     0.709160000000     0.882750000000     0.0461207  
H333     H      0.603740000000     0.689770000000     0.925920000000     0.0463913  
H334     H      0.629110000000     0.664610000000     0.955980000000     0.0290235  
H335     H      0.682690000000     0.727350000000     0.964610000000     0.0289845  
H336     H      0.657320000000     0.752430000000     0.934270000000     0.0461213  
H337     H      0.728190000000     0.560510000000     0.105940000000     0.0463947  
H338     H      0.703430000000     0.586720000000     0.076190000000     0.0290463  
H339     H      0.767540000000     0.639440000000     0.070900000000     0.0288548  
H340     H      0.792130000000     0.613300000000     0.100850000000     0.0460402  
H341     H      0.812490000000     0.570620000000     0.099180000000     0.0462527  
H342     H      0.837790000000     0.541210000000     0.125110000000     0.0288856  
H343     H      0.772400000000     0.530870000000     0.175650000000     0.028773   
H344     H      0.747150000000     0.560570000000     0.149690000000     0.0461738  
H345     H      0.611490000000     0.773140000000     0.096840000000     0.0463568  
H346     H      0.582220000000     0.798510000000     0.123060000000     0.0287724  
H347     H      0.573420000000     0.735020000000     0.175120000000     0.0287974  
H348     H      0.602910000000     0.709770000000     0.148910000000     0.0463135  
H349     H      0.654970000000     0.752890000000     0.097800000000     0.0461671  
H350     H      0.680860000000     0.727650000000     0.068110000000     0.0288674  
H351     H      0.627090000000     0.664960000000     0.076050000000     0.0288857  
H352     H      0.601170000000     0.690330000000     0.105540000000     0.0463892  
H353     H      0.937830000000     0.614830000000     0.788350000000     0.0461266  
H354     H      0.967740000000     0.640720000000     0.763190000000     0.0289986  
H355     H      0.958740000000     0.588940000000     0.699450000000     0.02904    
H356     H      0.929120000000     0.563040000000     0.724690000000     0.0463605  
H357     H      0.885820000000     0.563460000000     0.744940000000     0.0461332  
H358     H      0.860400000000     0.533240000000     0.770060000000     0.028891   
H359     H      0.913870000000     0.541870000000     0.833070000000     0.0289963  
H360     H      0.939300000000     0.571810000000     0.807860000000     0.0464186  
H361     H      0.815550000000     0.586740000000     0.917150000000     0.0458965  
H362     H      0.840180000000     0.556500000000     0.891550000000     0.0246833  
H363     H      0.770730000000     0.513390000000     0.876890000000     0.0250228  
H364     H      0.746250000000     0.542010000000     0.904290000000     0.0459982  
H365     H      0.726960000000     0.580080000000     0.910960000000     0.0458125  
H366     H      0.702400000000     0.605680000000     0.941300000000     0.0247543  
H367     H      0.772040000000     0.620700000000     0.984110000000     0.0252552  
H368     H      0.796450000000     0.593330000000     0.955400000000     0.0460415  
H369     H      0.814810000000     0.391750000000     0.936870000000     0.0464975  
H370     H      0.839520000000     0.421690000000     0.910840000000     0.0291568  
H371     H      0.775640000000     0.426820000000     0.857690000000     0.0289328  
H372     H      0.751100000000     0.396700000000     0.883660000000     0.0460794  
H373     H      0.730520000000     0.398000000000     0.926380000000     0.0463481  
H374     H      0.705280000000     0.371870000000     0.955680000000     0.0289499  
H375     H      0.770940000000     0.321830000000     0.966080000000     0.0288801  
H376     H      0.796130000000     0.348000000000     0.936490000000     0.0462586  
H377     H      0.889200000000     0.400810000000     0.744410000000     0.0463031  
H378     H      0.862930000000     0.430190000000     0.769620000000     0.0289064  
H379     H      0.916250000000     0.422340000000     0.832870000000     0.0289646  
H380     H      0.942540000000     0.393170000000     0.807530000000     0.0465067  
H381     H      0.932840000000     0.401950000000     0.724410000000     0.0464762  
H382     H      0.962200000000     0.375790000000     0.699070000000     0.0289273  
H383     H      0.970660000000     0.323820000000     0.762750000000     0.0289814  
H384     H      0.941090000000     0.349960000000     0.787960000000     0.0463171  
O1       O      0.812790000000     0.505280000000     0.846510000000    -0.545926   
O2       O      0.850700000000     0.455630000000     0.809240000000    -0.546306   
O3       O      0.814370000000     0.454320000000     0.846080000000    -0.545806   
O4       O      0.849260000000     0.506740000000     0.809610000000    -0.544748   
O5       O      0.880430000000     0.507040000000     0.839260000000    -0.547724   
O6       O      0.845090000000     0.455350000000     0.876180000000    -0.546165   
O7       O      0.881380000000     0.455910000000     0.839390000000    -0.54745    
O8       O      0.844240000000     0.506610000000     0.875930000000    -0.546786   
O9       O      0.692620000000     0.688170000000     0.042370000000    -0.546607   
O10      O      0.730110000000     0.650860000000     0.992400000000    -0.545568   
O11      O      0.693820000000     0.687840000000     0.991110000000    -0.544071   
O12      O      0.728760000000     0.651250000000     0.043500000000    -0.545483   
O13      O      0.697870000000     0.621400000000     0.042590000000    -0.546325   
O14      O      0.662510000000     0.658410000000     0.990920000000    -0.547422   
O15      O      0.698520000000     0.621660000000     0.991190000000    -0.545981   
O16      O      0.661770000000     0.658270000000     0.042210000000    -0.54721    
O17      O      0.497400000000     0.773790000000     0.845640000000    -0.545919   
O18      O      0.548330000000     0.810260000000     0.808190000000    -0.545397   
O19      O      0.549270000000     0.773860000000     0.844720000000    -0.544258   
O20      O      0.496660000000     0.810120000000     0.809260000000    -0.545509   
O21      O      0.497540000000     0.840440000000     0.839330000000    -0.546799   
O22      O      0.549460000000     0.803820000000     0.875160000000    -0.547697   
O23      O      0.549510000000     0.839990000000     0.838920000000    -0.546      
O24      O      0.497580000000     0.804170000000     0.875640000000    -0.546854   
O25      O      0.662960000000     0.007190000000     0.693730000000    -0.546631   
O26      O      0.699310000000     0.956290000000     0.656710000000    -0.546887   
O27      O      0.663160000000     0.955940000000     0.693480000000    -0.5456     
O28      O      0.699120000000     0.007550000000     0.656960000000    -0.545239   
O29      O      0.730830000000     0.006540000000     0.686120000000    -0.545008   
O30      O      0.693540000000     0.956900000000     0.724000000000    -0.545674   
O31      O      0.729870000000     0.955540000000     0.686980000000    -0.544762   
O32      O      0.694420000000     0.007870000000     0.723090000000    -0.544232   
O33      O      0.045840000000     0.657860000000     0.656770000000    -0.546269   
O34      O      0.993770000000     0.622260000000     0.693450000000    -0.546966   
O35      O      0.993860000000     0.658420000000     0.657200000000    -0.545476   
O36      O      0.045640000000     0.621610000000     0.693120000000    -0.546465   
O37      O      0.045880000000     0.651500000000     0.723630000000    -0.546083   
O38      O      0.995130000000     0.689040000000     0.687030000000    -0.544922   
O39      O      0.994030000000     0.652600000000     0.723500000000    -0.544098   
O40      O      0.046810000000     0.687790000000     0.687220000000    -0.545468   
O41      O      0.844350000000     0.840530000000     0.541430000000    -0.548104   
O42      O      0.881150000000     0.804450000000     0.490110000000    -0.54686    
O43      O      0.844830000000     0.841110000000     0.490160000000    -0.547004   
O44      O      0.880550000000     0.803960000000     0.541510000000    -0.546461   
O45      O      0.850010000000     0.773700000000     0.540220000000    -0.545642   
O46      O      0.813620000000     0.811570000000     0.489870000000    -0.546463   
O47      O      0.850000000000     0.774870000000     0.489110000000    -0.545815   
O48      O      0.813570000000     0.810570000000     0.541130000000    -0.544569   
O49      O      0.495860000000     0.157800000000     0.875350000000    -0.54651    
O50      O      0.547830000000     0.121650000000     0.839050000000    -0.546337   
O51      O      0.547860000000     0.157850000000     0.875300000000    -0.545495   
O52      O      0.495830000000     0.121600000000     0.839120000000    -0.545488   
O53      O      0.496790000000     0.151070000000     0.808140000000    -0.545595   
O54      O      0.546780000000     0.188690000000     0.845690000000    -0.545059   
O55      O      0.548490000000     0.152260000000     0.809270000000    -0.545311   
O56      O      0.495050000000     0.187430000000     0.844590000000    -0.545088   
O57      O      0.662500000000     0.302830000000     0.041760000000    -0.546655   
O58      O      0.699680000000     0.338940000000     0.990730000000    -0.547331   
O59      O      0.663280000000     0.302530000000     0.990380000000    -0.545743   
O60      O      0.698990000000     0.339330000000     0.041980000000    -0.546932   
O61      O      0.730080000000     0.309680000000     0.042290000000    -0.545289   
O62      O      0.693670000000     0.272110000000     0.991660000000    -0.543949   
O63      O      0.730330000000     0.308840000000     0.991040000000    -0.543534   
O64      O      0.693510000000     0.273110000000     0.042780000000    -0.545085   
O65      O      0.843610000000     0.506320000000     0.158130000000    -0.547917   
O66      O      0.881180000000     0.455680000000     0.194290000000    -0.546894   
O67      O      0.844570000000     0.455210000000     0.157790000000    -0.54707    
O68      O      0.880100000000     0.506930000000     0.194520000000    -0.546228   
O69      O      0.849800000000     0.505530000000     0.225100000000    -0.544879   
O70      O      0.813580000000     0.454770000000     0.187620000000    -0.545481   
O71      O      0.850280000000     0.454550000000     0.224200000000    -0.545418   
O72      O      0.813040000000     0.505880000000     0.188400000000    -0.543901   
O73      O      0.995360000000     0.658760000000     0.375000000000    -0.547305   
O74      O      0.046890000000     0.621500000000     0.339270000000    -0.546499   
O75      O      0.047210000000     0.657930000000     0.375440000000    -0.546572   
O76      O      0.994910000000     0.622430000000     0.338940000000    -0.545714   
O77      O      0.996310000000     0.652000000000     0.308080000000    -0.544511   
O78      O      0.047630000000     0.688190000000     0.345310000000    -0.545692   
O79      O      0.048010000000     0.651690000000     0.309090000000    -0.54566    
O80      O      0.995800000000     0.688590000000     0.344440000000    -0.544292   
O81      O      0.161930000000     0.803030000000     0.542340000000    -0.547593   
O82      O      0.198340000000     0.839830000000     0.491260000000    -0.547609   
O83      O      0.162000000000     0.803230000000     0.491060000000    -0.547671   
O84      O      0.198290000000     0.839610000000     0.542530000000    -0.547693   
O85      O      0.229240000000     0.809820000000     0.542450000000    -0.545137   
O86      O      0.192860000000     0.773340000000     0.490970000000    -0.544983   
O87      O      0.229340000000     0.810080000000     0.491200000000    -0.544527   
O88      O      0.192750000000     0.773100000000     0.542220000000    -0.544466   
O89      O      0.381040000000     0.955220000000     0.694490000000    -0.547185   
O90      O      0.343740000000     0.005900000000     0.658140000000    -0.547649   
O91      O      0.380200000000     0.006450000000     0.694580000000    -0.545999   
O92      O      0.344480000000     0.954790000000     0.657960000000    -0.546784   
O93      O      0.313470000000     0.954550000000     0.687790000000    -0.545291   
O94      O      0.349860000000     0.005290000000     0.725130000000    -0.544222   
O95      O      0.313130000000     0.005670000000     0.688370000000    -0.543418   
O96      O      0.350130000000     0.954330000000     0.724390000000    -0.545452   
O97      O      0.692270000000     0.007920000000     0.308880000000    -0.544865   
O98      O      0.729120000000     0.956890000000     0.345420000000    -0.545253   
O99      O      0.692370000000     0.956800000000     0.308910000000    -0.545361   
O100     O      0.729040000000     0.007980000000     0.345380000000    -0.545068   
O101     O      0.698310000000     0.007980000000     0.375480000000    -0.546997   
O102     O      0.661740000000     0.956750000000     0.339110000000    -0.54713    
O103     O      0.698380000000     0.956860000000     0.375510000000    -0.547941   
O104     O      0.661650000000     0.007890000000     0.339090000000    -0.547443   
O105     O      0.495630000000     0.810800000000     0.223530000000    -0.545786   
O106     O      0.547640000000     0.774580000000     0.187290000000    -0.546021   
O107     O      0.547470000000     0.810990000000     0.223670000000    -0.544941   
O108     O      0.495820000000     0.774430000000     0.187140000000    -0.544798   
O109     O      0.495790000000     0.804620000000     0.156940000000    -0.547965   
O110     O      0.547470000000     0.841020000000     0.193310000000    -0.547904   
O111     O      0.547640000000     0.804730000000     0.157050000000    -0.548002   
O112     O      0.495610000000     0.840870000000     0.193200000000    -0.548101   
O113     O      0.230220000000     0.457000000000     0.844860000000    -0.545276   
O114     O      0.192530000000     0.507390000000     0.808310000000    -0.545746   
O115     O      0.229110000000     0.507970000000     0.844980000000    -0.545646   
O116     O      0.193540000000     0.456280000000     0.808130000000    -0.544934   
O117     O      0.162540000000     0.455920000000     0.837960000000    -0.547886   
O118     O      0.198540000000     0.506900000000     0.875230000000    -0.546398   
O119     O      0.162020000000     0.507030000000     0.838630000000    -0.547529   
O120     O      0.198920000000     0.455650000000     0.874440000000    -0.546747   
O121     O      0.350790000000     0.688900000000     0.990130000000    -0.544379   
O122     O      0.314110000000     0.652480000000     0.041450000000    -0.544899   
O123     O      0.350770000000     0.688970000000     0.041380000000    -0.545328   
O124     O      0.314080000000     0.652380000000     0.990200000000    -0.544426   
O125     O      0.344880000000     0.622430000000     0.990230000000    -0.54691    
O126     O      0.381460000000     0.658920000000     0.041440000000    -0.547496   
O127     O      0.344930000000     0.622540000000     0.041510000000    -0.547825   
O128     O      0.381460000000     0.658820000000     0.990170000000    -0.547349   
O129     O      0.163030000000     0.506750000000     0.193870000000    -0.547817   
O130     O      0.200180000000     0.456440000000     0.156820000000    -0.547801   
O131     O      0.163780000000     0.455630000000     0.193470000000    -0.548171   
O132     O      0.199420000000     0.507550000000     0.157230000000    -0.547779   
O133     O      0.230330000000     0.507770000000     0.187150000000    -0.545142   
O134     O      0.194610000000     0.455800000000     0.223460000000    -0.545151   
O135     O      0.231140000000     0.456680000000     0.186680000000    -0.54492    
O136     O      0.193810000000     0.506900000000     0.223920000000    -0.544769   
O137     O      0.380740000000     0.303940000000     0.988350000000    -0.548246   
O138     O      0.346000000000     0.341540000000     0.040010000000    -0.545999   
O139     O      0.382450000000     0.304810000000     0.039440000000    -0.547678   
O140     O      0.344540000000     0.340470000000     0.988640000000    -0.546922   
O141     O      0.313350000000     0.310880000000     0.990460000000    -0.544343   
O142     O      0.351400000000     0.275120000000     0.041250000000    -0.545004   
O143     O      0.315060000000     0.311770000000     0.041540000000    -0.546469   
O144     O      0.349910000000     0.274060000000     0.989920000000    -0.543278   
O145     O      0.545400000000     0.151010000000     0.222240000000    -0.545018   
O146     O      0.493880000000     0.186690000000     0.184670000000    -0.544379   
O147     O      0.493560000000     0.150480000000     0.221090000000    -0.546101   
O148     O      0.545780000000     0.187320000000     0.185750000000    -0.544624   
O149     O      0.547200000000     0.156840000000     0.155880000000    -0.547605   
O150     O      0.494230000000     0.120540000000     0.190650000000    -0.546051   
O151     O      0.495520000000     0.156790000000     0.154170000000    -0.548116   
O152     O      0.546110000000     0.120680000000     0.192200000000    -0.548478   
O153     O      0.047400000000     0.274490000000     0.686400000000    -0.546012   
O154     O      0.996310000000     0.311490000000     0.723090000000    -0.545747   
O155     O      0.995570000000     0.275070000000     0.686790000000    -0.544811   
O156     O      0.048140000000     0.310950000000     0.722670000000    -0.54528    
O157     O      0.048230000000     0.340940000000     0.692280000000    -0.547713   
O158     O      0.995650000000     0.305180000000     0.656510000000    -0.546804   
O159     O      0.996360000000     0.341500000000     0.692710000000    -0.547046   
O160     O      0.047530000000     0.304590000000     0.656100000000    -0.547341   
O161     O      0.850650000000     0.189850000000     0.490330000000    -0.545169   
O162     O      0.812890000000     0.153180000000     0.540680000000    -0.544711   
O163     O      0.849580000000     0.189840000000     0.541590000000    -0.544584   
O164     O      0.814080000000     0.153270000000     0.489580000000    -0.545745   
O165     O      0.844680000000     0.123130000000     0.490580000000    -0.546867   
O166     O      0.880590000000     0.160100000000     0.541880000000    -0.547922   
O167     O      0.844210000000     0.123690000000     0.541950000000    -0.546205   
O168     O      0.881180000000     0.159630000000     0.490610000000    -0.547063   
O169     O      0.230450000000     0.150960000000     0.491930000000    -0.545794   
O170     O      0.193120000000     0.187790000000     0.542400000000    -0.546373   
O171     O      0.229290000000     0.150880000000     0.543060000000    -0.546124   
O172     O      0.194130000000     0.187950000000     0.491170000000    -0.544434   
O173     O      0.162840000000     0.158490000000     0.490810000000    -0.547788   
O174     O      0.198420000000     0.121030000000     0.541990000000    -0.546863   
O175     O      0.162290000000     0.157870000000     0.542060000000    -0.547431   
O176     O      0.198870000000     0.121760000000     0.490580000000    -0.546835   
O177     O      0.311680000000     0.005690000000     0.344550000000    -0.544843   
O178     O      0.348890000000     0.954810000000     0.308240000000    -0.545989   
O179     O      0.312620000000     0.954720000000     0.345180000000    -0.545501   
O180     O      0.348100000000     0.005900000000     0.307500000000    -0.5437     
O181     O      0.379300000000     0.006480000000     0.337130000000    -0.547303   
O182     O      0.343450000000     0.955970000000     0.375160000000    -0.546615   
O183     O      0.379660000000     0.955380000000     0.338300000000    -0.547539   
O184     O      0.343190000000     0.007200000000     0.373900000000    -0.546531   
O185     O      0.997410000000     0.341070000000     0.339630000000    -0.546513   
O186     O      0.049310000000     0.304850000000     0.375940000000    -0.547013   
O187     O      0.049290000000     0.341020000000     0.339570000000    -0.547241   
O188     O      0.997420000000     0.304890000000     0.376010000000    -0.546456   
O189     O      0.997380000000     0.274650000000     0.345860000000    -0.544686   
O190     O      0.049210000000     0.310890000000     0.309320000000    -0.545397   
O191     O      0.049230000000     0.274620000000     0.345790000000    -0.545228   
O192     O      0.997370000000     0.310940000000     0.309370000000    -0.544517   
V1       V      0.830540000000     0.480480000000     0.826650000000     1.38442    
V2       V      0.864020000000     0.481240000000     0.858890000000     1.39044    
V3       V      0.712570000000     0.670740000000     0.017350000000     1.38357    
V4       V      0.678920000000     0.638750000000     0.016720000000     1.38895    
V5       V      0.522910000000     0.790780000000     0.825750000000     1.38337    
V6       V      0.523530000000     0.823310000000     0.858470000000     1.39013    
V7       V      0.679890000000     0.981750000000     0.674020000000     1.38829    
V8       V      0.713420000000     0.981710000000     0.706250000000     1.38322    
V9       V      0.019760000000     0.638840000000     0.673920000000     1.38804    
V10      V      0.020470000000     0.671430000000     0.706580000000     1.38277    
V11      V      0.863970000000     0.823700000000     0.515810000000     1.3907     
V12      V      0.830540000000     0.791490000000     0.515070000000     1.38432    
V13      V      0.521850000000     0.138520000000     0.858420000000     1.38836    
V14      V      0.521780000000     0.171080000000     0.825700000000     1.38449    
V15      V      0.679880000000     0.322090000000     0.016200000000     1.38988    
V16      V      0.713150000000     0.289740000000     0.016950000000     1.38027    
V17      V      0.863600000000     0.481050000000     0.174990000000     1.39091    
V18      V      0.830430000000     0.480160000000     0.207540000000     1.38175    
V19      V      0.021070000000     0.638950000000     0.358370000000     1.38888    
V20      V      0.021950000000     0.671340000000     0.325520000000     1.38204    
V21      V      0.178910000000     0.822610000000     0.516800000000     1.39228    
V22      V      0.212300000000     0.790380000000     0.516710000000     1.38006    
V23      V      0.363600000000     0.980600000000     0.675100000000     1.39045    
V24      V      0.330400000000     0.979950000000     0.707620000000     1.38061    
V25      V      0.711930000000     0.982400000000     0.325930000000     1.38134    
V26      V      0.678800000000     0.982370000000     0.358500000000     1.39081    
V27      V      0.521650000000     0.791490000000     0.206630000000     1.38199    
V28      V      0.521630000000     0.824010000000     0.173920000000     1.39275    
V29      V      0.212580000000     0.482180000000     0.825350000000     1.38324    
V30      V      0.179280000000     0.481370000000     0.857770000000     1.39087    
V31      V      0.331200000000     0.671890000000     0.015780000000     1.38009    
V32      V      0.364410000000     0.639480000000     0.015830000000     1.3911     
V33      V      0.180370000000     0.481580000000     0.174160000000     1.39263    
V34      V      0.213720000000     0.481790000000     0.206510000000     1.38063    
V35      V      0.364650000000     0.323900000000     0.014080000000     1.39126    
V36      V      0.331190000000     0.291740000000     0.015830000000     1.38131    
V37      V      0.519620000000     0.170090000000     0.204660000000     1.38159    
V38      V      0.520780000000     0.137490000000     0.172040000000     1.39193    
V39      V      0.021850000000     0.291790000000     0.705960000000     1.38255    
V40      V      0.021950000000     0.324250000000     0.673190000000     1.3897     
V41      V      0.830570000000     0.172750000000     0.515530000000     1.38212    
V42      V      0.863890000000     0.140440000000     0.516260000000     1.3911     
V43      V      0.213000000000     0.170590000000     0.517160000000     1.38424    
V44      V      0.179370000000     0.138590000000     0.516350000000     1.39088    
V45      V      0.329080000000     0.980260000000     0.325160000000     1.38185    
V46      V      0.362630000000     0.981280000000     0.357320000000     1.39031    
V47      V      0.023360000000     0.324160000000     0.358990000000     1.38888    
V48      V      0.023290000000     0.291560000000     0.326370000000     1.38091    


