data_structure

_audit_creation_method RASPA-1.0
_audit_creation_date 2023-6-5
_audit_author_name 'Poobodin Mano'

_cell_length_a    63.5996
_cell_length_b    63.5998
_cell_length_c    38.4192
_cell_angle_alpha 89.9371
_cell_angle_beta  90.063
_cell_angle_gamma 119.925
_cell_volume      134684

_symmetry_cell_setting          triclinic
_symmetry_space_group_name_Hall 'P 1'
_symmetry_space_group_name_H-M  'P 1'
_symmetry_Int_Tables_number     1

_symmetry_equiv_pos_as_xyz 'x,y,z'

loop_
_atom_site_label
_atom_site_type_symbol
_atom_site_fract_x
_atom_site_fract_y
_atom_site_fract_z
_atom_site_charge
C1       C      0.873610000000     0.687570000000     0.590840000000     0.436485   
C2       C      0.852610000000     0.680790000000     0.718730000000     0.436181   
C3       C      0.818590000000     0.662500000000     0.638630000000     0.434688   
C4       C      0.907600000000     0.705830000000     0.670950000000     0.435667   
C5       C      0.207730000000     0.856030000000     0.756810000000     0.436038   
C6       C      0.185600000000     0.841120000000     0.884350000000     0.43556    
C7       C      0.241060000000     0.871130000000     0.837570000000     0.435113   
C8       C      0.152340000000     0.826180000000     0.803630000000     0.434611   
C9       C      0.540720000000     0.019300000000     0.925480000000     0.434699   
C10      C      0.518430000000     0.013530000000     0.052860000000     0.435339   
C11      C      0.485250000000     0.994510000000     0.972140000000     0.434205   
C12      C      0.573930000000     0.038310000000     0.006240000000     0.435252   
C13      C      0.185090000000     0.343990000000     0.386730000000     0.434733   
C14      C      0.207100000000     0.349250000000     0.259280000000     0.434534   
C15      C      0.240470000000     0.367750000000     0.339920000000     0.434551   
C16      C      0.151780000000     0.325490000000     0.306060000000     0.434856   
C17      C      0.873750000000     0.190180000000     0.091860000000     0.435914   
C18      C      0.852140000000     0.175000000000     0.219550000000     0.4359     
C19      C      0.907420000000     0.204880000000     0.172260000000     0.435587   
C20      C      0.818560000000     0.160420000000     0.139170000000     0.435075   
C21      C      0.540070000000     0.524700000000     0.426450000000     0.435077   
C22      C      0.518420000000     0.505960000000     0.553710000000     0.434838   
C23      C      0.573600000000     0.539030000000     0.506990000000     0.434633   
C24      C      0.484940000000     0.491610000000     0.473170000000     0.434849   
C25      C      0.203450000000     0.346680000000     0.886590000000     0.43449    
C26      C      0.183130000000     0.347240000000     0.759350000000     0.434769   
C27      C      0.217560000000     0.326870000000     0.806430000000     0.434995   
C28      C      0.168940000000     0.367070000000     0.839470000000     0.434771   
C29      C      0.360760000000     0.171460000000     0.718430000000     0.434825   
C30      C      0.360380000000     0.191640000000     0.591090000000     0.434813   
C31      C      0.340200000000     0.205620000000     0.670940000000     0.434438   
C32      C      0.380960000000     0.157430000000     0.638510000000     0.434477   
C33      C      0.022820000000     0.500400000000     0.049940000000     0.431267   
C34      C      0.020220000000     0.518780000000     0.922360000000     0.433587   
C35      C      0.000280000000     0.532770000000     0.002350000000     0.41851    
C36      C      0.042920000000     0.486370000000     0.969990000000     0.434315   
C37      C      0.696260000000     0.861190000000     0.259130000000     0.43603    
C38      C      0.703620000000     0.846240000000     0.386710000000     0.435827   
C39      C      0.722810000000     0.832180000000     0.306010000000     0.435002   
C40      C      0.676980000000     0.875140000000     0.339800000000     0.434949   
C41      C      0.857090000000     0.688850000000     0.090920000000     0.436228   
C42      C      0.870340000000     0.680070000000     0.218620000000     0.436477   
C43      C      0.842930000000     0.708080000000     0.171420000000     0.435112   
C44      C      0.884500000000     0.660840000000     0.138050000000     0.434975   
C45      C      0.516110000000     0.013870000000     0.425560000000     0.435167   
C46      C      0.534520000000     0.011180000000     0.553100000000     0.435117   
C47      C      0.501820000000     0.033570000000     0.505640000000     0.434631   
C48      C      0.548830000000     0.991610000000     0.473000000000     0.434504   
C49      C      0.357320000000     0.172550000000     0.091070000000     0.434827   
C50      C      0.362840000000     0.194850000000     0.218430000000     0.434534   
C51      C      0.338710000000     0.139400000000     0.171920000000     0.434694   
C52      C      0.381430000000     0.228030000000     0.137630000000     0.434738   
C53      C      0.538340000000     0.528170000000     0.053620000000     0.434661   
C54      C      0.519870000000     0.506680000000     0.926270000000     0.434997   
C55      C      0.505530000000     0.473120000000     0.006570000000     0.43511    
C56      C      0.552600000000     0.561880000000     0.973160000000     0.434833   
C57      C      0.200050000000     0.860440000000     0.384770000000     0.43527    
C58      C      0.183030000000     0.840240000000     0.256910000000     0.435874   
C59      C      0.168310000000     0.805780000000     0.336600000000     0.435086   
C60      C      0.214910000000     0.894890000000     0.305070000000     0.435083   
C61      C      0.021940000000     0.505500000000     0.422570000000     0.436342   
C62      C      0.027750000000     0.527810000000     0.549970000000     0.433672   
C63      C      0.003400000000     0.472390000000     0.503390000000     0.418428   
C64      C      0.046260000000     0.561030000000     0.469090000000     0.434715   
C65      C      0.853470000000     0.173000000000     0.592060000000     0.435724   
C66      C      0.868570000000     0.195040000000     0.719640000000     0.436224   
C67      C      0.883040000000     0.228450000000     0.638970000000     0.434883   
C68      C      0.839120000000     0.139680000000     0.672700000000     0.434512   
C69      C      0.700020000000     0.861570000000     0.886600000000     0.435645   
C70      C      0.693900000000     0.839990000000     0.758920000000     0.436057   
C71      C      0.718770000000     0.895150000000     0.806200000000     0.434735   
C72      C      0.675170000000     0.806290000000     0.839350000000     0.434652   
C73      C      0.826510000000     0.114070000000     0.684530000000    -0.135372   
C74      C      0.801420000000     0.101770000000     0.691150000000     0.0382876  
C75      C      0.789750000000     0.078050000000     0.704030000000    -0.0791657  
C76      C      0.802880000000     0.066060000000     0.710630000000     0.0354575  
C77      C      0.827890000000     0.078230000000     0.703490000000    -0.0790483  
C78      C      0.839560000000     0.101940000000     0.690570000000     0.0384901  
C79      C      0.790610000000     0.041120000000     0.725410000000    -0.00294375 
C80      C      0.773060000000     0.034520000000     0.751730000000    -0.0373623  
C81      C      0.761620000000     0.011130000000     0.765790000000    -0.0372996  
C82      C      0.767480000000     0.993790000000     0.753930000000    -0.00322117 
C83      C      0.785050000000     0.000380000000     0.727660000000    -0.0371936  
C84      C      0.796470000000     0.023760000000     0.713550000000    -0.0374849  
C85      C      0.755160000000     0.968840000000     0.768610000000     0.0356246  
C86      C      0.730040000000     0.956520000000     0.774920000000    -0.0794288  
C87      C      0.718310000000     0.932770000000     0.787680000000     0.0384502  
C88      C      0.731420000000     0.920790000000     0.794510000000    -0.135511   
C89      C      0.756620000000     0.933280000000     0.788770000000     0.0384545  
C90      C      0.768340000000     0.957010000000     0.775930000000    -0.0792473  
C91      C      0.990920000000     0.446830000000     0.515430000000    -0.115062   
C92      C      0.004160000000     0.435050000000     0.522740000000     0.0158421  
C93      C      0.992510000000     0.411380000000     0.535840000000    -0.0582196  
C94      C      0.967380000000     0.398970000000     0.542020000000     0.0263841  
C95      C      0.954090000000     0.410600000000     0.534210000000    -0.0711665  
C96      C      0.965700000000     0.434240000000     0.521030000000     0.0287358  
C97      C      0.955120000000     0.374120000000     0.557050000000     0.00148331 
C98      C      0.961070000000     0.356760000000     0.545610000000    -0.0389372  
C99      C      0.949570000000     0.333420000000     0.559850000000    -0.0360568  
C100     C      0.931880000000     0.326910000000     0.585940000000    -0.00357108 
C101     C      0.925970000000     0.344310000000     0.597420000000    -0.0361631  
C102     C      0.937440000000     0.367630000000     0.583130000000    -0.0391291  
C103     C      0.919510000000     0.302010000000     0.600850000000     0.0360663  
C104     C      0.932590000000     0.290030000000     0.607860000000    -0.079297   
C105     C      0.920830000000     0.266340000000     0.620820000000     0.0389521  
C106     C      0.895710000000     0.254050000000     0.627130000000    -0.135594   
C107     C      0.882690000000     0.266180000000     0.620710000000     0.0385986  
C108     C      0.894450000000     0.289870000000     0.607710000000    -0.079259   
C109     C      0.155030000000     0.780060000000     0.347860000000    -0.136016   
C110     C      0.130000000000     0.768330000000     0.354760000000     0.0383257  
C111     C      0.117790000000     0.744470000000     0.367150000000    -0.0794323  
C112     C      0.130340000000     0.731790000000     0.372970000000     0.0354007  
C113     C      0.155300000000     0.743410000000     0.365570000000    -0.0794687  
C114     C      0.167480000000     0.767230000000     0.353140000000     0.038588   
C115     C      0.117600000000     0.706710000000     0.387300000000    -0.00318937 
C116     C      0.100230000000     0.700250000000     0.413850000000    -0.0374546  
C117     C      0.088650000000     0.676840000000     0.427850000000    -0.0377068  
C118     C      0.094230000000     0.659350000000     0.415690000000    -0.003196   
C119     C      0.111490000000     0.665760000000     0.389030000000    -0.0375163  
C120     C      0.123010000000     0.689140000000     0.374970000000    -0.0375418  
C121     C      0.082060000000     0.634490000000     0.430640000000     0.0353905  
C122     C      0.057010000000     0.622140000000     0.437390000000    -0.07941    
C123     C      0.045440000000     0.598450000000     0.450400000000     0.0381996  
C124     C      0.058700000000     0.586600000000     0.457100000000    -0.135815   
C125     C      0.083850000000     0.599130000000     0.450960000000     0.0382814  
C126     C      0.095380000000     0.622780000000     0.437830000000    -0.0794752  
C127     C      0.565900000000     0.587460000000     0.961220000000    -0.135598   
C128     C      0.590750000000     0.598830000000     0.953130000000     0.0383764  
C129     C      0.602890000000     0.622510000000     0.940040000000    -0.0791716  
C130     C      0.590420000000     0.635300000000     0.934610000000     0.0355184  
C131     C      0.565690000000     0.624080000000     0.943250000000    -0.079453   
C132     C      0.553580000000     0.600470000000     0.956450000000     0.0383588  
C133     C      0.603020000000     0.660120000000     0.919520000000    -0.00302335 
C134     C      0.626480000000     0.677340000000     0.930550000000    -0.037557   
C135     C      0.638170000000     0.700750000000     0.916510000000    -0.0372677  
C136     C      0.626720000000     0.707450000000     0.891010000000    -0.00305291 
C137     C      0.603320000000     0.690130000000     0.879800000000    -0.0373929  
C138     C      0.591610000000     0.666770000000     0.893910000000    -0.0374699  
C139     C      0.638980000000     0.732480000000     0.876520000000     0.0354497  
C140     C      0.663980000000     0.744670000000     0.869250000000    -0.0791703  
C141     C      0.675640000000     0.768460000000     0.856640000000     0.0383453  
C142     C      0.662570000000     0.780630000000     0.850930000000    -0.135416   
C143     C      0.637500000000     0.768300000000     0.857640000000     0.038347   
C144     C      0.625860000000     0.744530000000     0.870320000000    -0.0790597  
C145     C      0.326210000000     0.113860000000     0.184010000000    -0.13575    
C146     C      0.301030000000     0.101380000000     0.189840000000     0.0385432  
C147     C      0.289370000000     0.077780000000     0.203100000000    -0.0796231  
C148     C      0.302590000000     0.066060000000     0.210760000000     0.035635   
C149     C      0.327690000000     0.078330000000     0.204320000000    -0.0791792  
C150     C      0.339390000000     0.101990000000     0.191160000000     0.0385004  
C151     C      0.290240000000     0.041240000000     0.225850000000    -0.00299732 
C152     C      0.272820000000     0.034990000000     0.252240000000    -0.0375599  
C153     C      0.261020000000     0.011610000000     0.266320000000    -0.0373926  
C154     C      0.266330000000     0.993900000000     0.254290000000    -0.00322022 
C155     C      0.283870000000     0.000210000000     0.228010000000    -0.0371477  
C156     C      0.295720000000     0.023630000000     0.214000000000    -0.0375281  
C157     C      0.253360000000     0.968850000000     0.268670000000     0.0355333  
C158     C      0.228360000000     0.957350000000     0.275770000000    -0.0792804  
C159     C      0.215980000000     0.933540000000     0.288240000000     0.0383346  
C160     C      0.228300000000     0.920620000000     0.293840000000    -0.135754   
C161     C      0.253370000000     0.932240000000     0.287260000000     0.0386776  
C162     C      0.265750000000     0.956070000000     0.274870000000    -0.0792646  
C163     C      0.492030000000     0.447450000000     0.018020000000    -0.135818   
C164     C      0.504210000000     0.434370000000     0.023340000000     0.0384987  
C165     C      0.491740000000     0.410530000000     0.035660000000    -0.0793596  
C166     C      0.466770000000     0.399150000000     0.042900000000     0.0355743  
C167     C      0.454510000000     0.412110000000     0.037130000000    -0.0791257  
C168     C      0.466990000000     0.435990000000     0.024860000000     0.0385472  
C169     C      0.453700000000     0.373990000000     0.056890000000    -0.00306631 
C170     C      0.458890000000     0.356300000000     0.044370000000    -0.0373751  
C171     C      0.447090000000     0.332840000000     0.058140000000    -0.0375242  
C172     C      0.429760000000     0.326470000000     0.084700000000    -0.00296576 
C173     C      0.424360000000     0.344040000000     0.097000000000    -0.0374644  
C174     C      0.436220000000     0.367550000000     0.083300000000    -0.0372751  
C175     C      0.417450000000     0.301570000000     0.099500000000     0.0355521  
C176     C      0.430680000000     0.289790000000     0.106720000000    -0.079392   
C177     C      0.419060000000     0.266120000000     0.119720000000     0.0383195  
C178     C      0.393890000000     0.253620000000     0.125710000000    -0.13546    
C179     C      0.380700000000     0.265530000000     0.118990000000     0.0384081  
C180     C      0.392370000000     0.289270000000     0.106100000000    -0.0790793  
C181     C      0.693100000000     0.835920000000     0.720900000000    -0.13664    
C182     C      0.676450000000     0.838660000000     0.700040000000     0.0394584  
C183     C      0.677300000000     0.837440000000     0.663840000000    -0.080211   
C184     C      0.694620000000     0.833180000000     0.647710000000     0.036097   
C185     C      0.710580000000     0.829350000000     0.668500000000    -0.0798438  
C186     C      0.709930000000     0.830850000000     0.704770000000     0.0390573  
C187     C      0.696890000000     0.834180000000     0.609310000000    -0.00343725 
C188     C      0.697650000000     0.853670000000     0.590980000000    -0.0373983  
C189     C      0.700140000000     0.855080000000     0.554870000000    -0.0374223  
C190     C      0.701680000000     0.836900000000     0.536240000000    -0.00343871 
C191     C      0.700770000000     0.817300000000     0.554480000000    -0.0376442  
C192     C      0.698620000000     0.816060000000     0.590780000000    -0.0377217  
C193     C      0.703770000000     0.838410000000     0.497820000000     0.0360838  
C194     C      0.720420000000     0.860310000000     0.481720000000    -0.0801441  
C195     C      0.721010000000     0.862520000000     0.445530000000     0.0393229  
C196     C      0.704760000000     0.842950000000     0.424680000000    -0.136498   
C197     C      0.688630000000     0.820780000000     0.440770000000     0.0390951  
C198     C      0.688250000000     0.818490000000     0.477010000000    -0.0798731  
C199     C      0.695050000000     0.864760000000     0.221250000000    -0.136486   
C200     C      0.711880000000     0.886680000000     0.205270000000     0.039045   
C201     C      0.711970000000     0.889340000000     0.169140000000    -0.0794728  
C202     C      0.695330000000     0.870100000000     0.148130000000     0.0356436  
C203     C      0.678080000000     0.848420000000     0.164250000000    -0.0792827  
C204     C      0.677880000000     0.845810000000     0.200370000000     0.0389704  
C205     C      0.696610000000     0.872140000000     0.109520000000    -0.00301982 
C206     C      0.719200000000     0.883730000000     0.092490000000    -0.0372559  
C207     C      0.720470000000     0.884230000000     0.056180000000    -0.0373862  
C208     C      0.699210000000     0.873040000000     0.035970000000    -0.00290716 
C209     C      0.676620000000     0.861980000000     0.052990000000    -0.0373399  
C210     C      0.675350000000     0.861590000000     0.089310000000    -0.0374248  
C211     C      0.700520000000     0.871940000000     0.997410000000     0.0355039  
C212     C      0.718040000000     0.867720000000     0.981660000000    -0.0791202  
C213     C      0.718330000000     0.865070000000     0.945600000000     0.0387553  
C214     C      0.700990000000     0.866410000000     0.924430000000    -0.136152   
C215     C      0.683860000000     0.871230000000     0.940040000000     0.0389864  
C216     C      0.683670000000     0.874030000000     0.976090000000    -0.0794353  
C217     C      0.735940000000     0.819730000000     0.293990000000    -0.135578   
C218     C      0.761090000000     0.832850000000     0.287950000000     0.0383658  
C219     C      0.773140000000     0.821270000000     0.274630000000    -0.0790585  
C220     C      0.760310000000     0.796320000000     0.267030000000     0.0355265  
C221     C      0.735260000000     0.783140000000     0.273750000000    -0.0793687  
C222     C      0.723220000000     0.794690000000     0.287050000000     0.0386251  
C223     C      0.772850000000     0.784100000000     0.251660000000    -0.00294591 
C224     C      0.795900000000     0.789430000000     0.263550000000    -0.0374701  
C225     C      0.807460000000     0.777620000000     0.249330000000    -0.037339   
C226     C      0.796240000000     0.760240000000     0.222880000000    -0.00304335 
C227     C      0.773310000000     0.755130000000     0.210740000000    -0.0373785  
C228     C      0.761760000000     0.766920000000     0.224940000000    -0.037431   
C229     C      0.808150000000     0.747110000000     0.208500000000     0.035595   
C230     C      0.833200000000     0.759390000000     0.201700000000    -0.0791668  
C231     C      0.844450000000     0.746830000000     0.189070000000     0.0383716  
C232     C      0.830880000000     0.721690000000     0.183030000000    -0.135457   
C233     C      0.805770000000     0.709490000000     0.189420000000     0.0384877  
C234     C      0.794550000000     0.722050000000     0.201990000000    -0.0792789  
C235     C      0.663660000000     0.887430000000     0.351630000000    -0.135715   
C236     C      0.676020000000     0.912550000000     0.357990000000     0.0384337  
C237     C      0.663640000000     0.923900000000     0.370830000000    -0.0793035  
C238     C      0.638600000000     0.910410000000     0.377670000000     0.0354991  
C239     C      0.626180000000     0.885360000000     0.370820000000    -0.0792579  
C240     C      0.638550000000     0.874010000000     0.357930000000     0.0385067  
C241     C      0.625560000000     0.922340000000     0.392380000000    -0.00306687 
C242     C      0.636360000000     0.940150000000     0.418390000000    -0.0372847  
C243     C      0.624030000000     0.951210000000     0.432460000000    -0.0375405  
C244     C      0.600570000000     0.944670000000     0.420910000000    -0.00299777 
C245     C      0.589750000000     0.926860000000     0.394930000000    -0.037508   
C246     C      0.602100000000     0.915840000000     0.380800000000    -0.037496   
C247     C      0.587520000000     0.956550000000     0.435620000000     0.0354156  
C248     C      0.599730000000     0.981730000000     0.441350000000    -0.079093   
C249     C      0.587270000000     0.993040000000     0.454050000000     0.0382078  
C250     C      0.562320000000     0.979430000000     0.461430000000    -0.135351   
C251     C      0.550210000000     0.954170000000     0.456300000000     0.0380842  
C252     C      0.562660000000     0.942880000000     0.443480000000    -0.07929    
C253     C      0.020020000000     0.523440000000     0.884590000000    -0.134421   
C254     C      0.002910000000     0.505340000000     0.862580000000     0.0335095  
C255     C      0.003650000000     0.509060000000     0.826650000000    -0.0835711  
C256     C      0.021390000000     0.531050000000     0.811820000000     0.0354928  
C257     C      0.038120000000     0.549400000000     0.833970000000    -0.0792508  
C258     C      0.037490000000     0.545610000000     0.869920000000     0.0376109  
C259     C      0.023000000000     0.534320000000     0.773330000000    -0.00256389 
C260     C      0.045700000000     0.546280000000     0.756640000000    -0.0376288  
C261     C      0.047230000000     0.547800000000     0.720350000000    -0.0377733  
C262     C      0.026120000000     0.537250000000     0.699770000000    -0.00258259 
C263     C      0.003420000000     0.525900000000     0.716490000000    -0.0421344  
C264     C      0.001890000000     0.524530000000     0.752780000000    -0.0423163  
C265     C      0.027700000000     0.536890000000     0.661110000000     0.0355219  
C266     C      0.045420000000     0.533100000000     0.645100000000    -0.0791803  
C267     C      0.045900000000     0.530970000000     0.608970000000     0.0379343  
C268     C      0.028560000000     0.532380000000     0.587900000000    -0.134473   
C269     C      0.011240000000     0.536820000000     0.603750000000     0.0333694  
C270     C      0.010870000000     0.539140000000     0.639910000000    -0.0837818  
C271     C      0.022550000000     0.496190000000     0.087880000000    -0.128284   
C272     C      0.000570000000     0.480920000000     0.105010000000     0.0198489  
C273     C      0.999830000000     0.478770000000     0.141250000000    -0.0603833  
C274     C      0.021110000000     0.491520000000     0.161040000000     0.022898   
C275     C      0.043240000000     0.506030000000     0.143880000000    -0.0729867  
C276     C      0.043940000000     0.508500000000     0.107660000000     0.0327074  
C277     C      0.020010000000     0.490770000000     0.199560000000     0.00184628 
C278     C      0.003180000000     0.495110000000     0.217030000000    -0.0444428  
C279     C      0.002920000000     0.495840000000     0.253350000000    -0.041773   
C280     C      0.019280000000     0.491880000000     0.273140000000    -0.00147101 
C281     C      0.035750000000     0.486950000000     0.255490000000    -0.0374456  
C282     C      0.036250000000     0.486620000000     0.219100000000    -0.0402406  
C283     C      0.019700000000     0.493820000000     0.311870000000     0.0294695  
C284     C      0.998180000000     0.486620000000     0.330740000000    -0.0736976  
C285     C      0.998840000000     0.490090000000     0.366740000000     0.0442174  
C286     C      0.020970000000     0.500440000000     0.384850000000    -0.141671   
C287     C      0.042370000000     0.506900000000     0.366300000000     0.0395919  
C288     C      0.041780000000     0.503810000000     0.330230000000    -0.0782946  
C289     C      0.896450000000     0.647220000000     0.126100000000    -0.135507   
C290     C      0.921600000000     0.659290000000     0.120050000000     0.0387498  
C291     C      0.932680000000     0.646750000000     0.106840000000    -0.0792278  
C292     C      0.918880000000     0.621840000000     0.099300000000     0.0359966  
C293     C      0.893800000000     0.609670000000     0.105950000000    -0.079211   
C294     C      0.882710000000     0.622200000000     0.119210000000     0.0385609  
C295     C      0.930550000000     0.608720000000     0.084040000000    -0.00357788 
C296     C      0.948430000000     0.619700000000     0.058160000000    -0.0360374  
C297     C      0.959420000000     0.607410000000     0.043750000000    -0.0389916  
C298     C      0.952750000000     0.583830000000     0.054820000000     0.0014504  
C299     C      0.934800000000     0.572790000000     0.080570000000    -0.0391264  
C300     C      0.923830000000     0.585090000000     0.095020000000    -0.0362049  
C301     C      0.964760000000     0.570930000000     0.039980000000     0.0263928  
C302     C      0.989970000000     0.583260000000     0.034510000000    -0.0584031  
C303     C      0.001420000000     0.570980000000     0.021700000000     0.0161543  
C304     C      0.987930000000     0.546070000000     0.013960000000    -0.115386   
C305     C      0.962640000000     0.533840000000     0.018820000000     0.0288101  
C306     C      0.951200000000     0.546120000000     0.031730000000    -0.0713606  
C307     C      0.360000000000     0.166690000000     0.756270000000    -0.135738   
C308     C      0.337750000000     0.151550000000     0.772890000000     0.0386465  
C309     C      0.336640000000     0.148890000000     0.809070000000    -0.0796828  
C310     C      0.357790000000     0.160970000000     0.829310000000     0.0356123  
C311     C      0.380150000000     0.175350000000     0.812640000000    -0.0793509  
C312     C      0.381230000000     0.178340000000     0.776490000000     0.038825   
C313     C      0.356370000000     0.159680000000     0.867820000000    -0.00300948 
C314     C      0.339620000000     0.164090000000     0.885380000000    -0.0377573  
C315     C      0.339150000000     0.164400000000     0.921720000000    -0.036914   
C316     C      0.355200000000     0.159950000000     0.941440000000    -0.00316582 
C317     C      0.371570000000     0.154920000000     0.923690000000    -0.0372242  
C318     C      0.372280000000     0.155000000000     0.887290000000    -0.0379782  
C319     C      0.355450000000     0.161520000000     0.980210000000     0.0354654  
C320     C      0.333900000000     0.154410000000     0.998930000000    -0.0791229  
C321     C      0.334430000000     0.157620000000     0.034980000000     0.0390907  
C322     C      0.356460000000     0.167600000000     0.053310000000    -0.135962   
C323     C      0.377880000000     0.173910000000     0.034910000000     0.0390229  
C324     C      0.377420000000     0.171090000000     0.998790000000    -0.0790516  
C325     C      0.363700000000     0.199610000000     0.256250000000    -0.135639   
C326     C      0.385780000000     0.209680000000     0.274460000000     0.0389414  
C327     C      0.386330000000     0.212470000000     0.310590000000    -0.0788368  
C328     C      0.364760000000     0.204830000000     0.329510000000     0.0353046  
C329     C      0.342740000000     0.195270000000     0.311050000000    -0.0787441  
C330     C      0.342250000000     0.192870000000     0.274840000000     0.0386275  
C331     C      0.365060000000     0.205770000000     0.368330000000    -0.00306773 
C332     C      0.381320000000     0.201250000000     0.387380000000    -0.0369613  
C333     C      0.380950000000     0.201000000000     0.423730000000    -0.0377141  
C334     C      0.364100000000     0.204920000000     0.441960000000    -0.00299287 
C335     C      0.347960000000     0.209640000000     0.423160000000    -0.0379945  
C336     C      0.348560000000     0.210270000000     0.386760000000    -0.0372316  
C337     C      0.362860000000     0.203110000000     0.480450000000     0.0356095  
C338     C      0.384080000000     0.215080000000     0.500570000000    -0.0796869  
C339     C      0.383140000000     0.212020000000     0.536670000000     0.0387389  
C340     C      0.360990000000     0.196600000000     0.553340000000    -0.135837   
C341     C      0.339690000000     0.185020000000     0.533250000000     0.0388766  
C342     C      0.340590000000     0.188390000000     0.497190000000    -0.07937    
C343     C      0.392930000000     0.143780000000     0.626740000000    -0.13545    
C344     C      0.379210000000     0.118860000000     0.619190000000     0.0383123  
C345     C      0.390430000000     0.106380000000     0.606130000000    -0.0791774  
C346     C      0.415580000000     0.118580000000     0.600140000000     0.035501   
C347     C      0.429340000000     0.143380000000     0.608270000000    -0.0794844  
C348     C      0.418170000000     0.155820000000     0.621490000000     0.0382561  
C349     C      0.427430000000     0.105660000000     0.584900000000    -0.00307759 
C350     C      0.421410000000     0.082350000000     0.596500000000    -0.0374732  
C351     C      0.432940000000     0.070450000000     0.582480000000    -0.0373186  
C352     C      0.450670000000     0.081550000000     0.556400000000    -0.00298801 
C353     C      0.456410000000     0.104730000000     0.544490000000    -0.0374596  
C354     C      0.444970000000     0.116650000000     0.558620000000    -0.0375182  
C355     C      0.463520000000     0.069260000000     0.542220000000     0.0354033  
C356     C      0.451040000000     0.044120000000     0.536040000000    -0.0789411  
C357     C      0.463360000000     0.032550000000     0.523660000000     0.0381661  
C358     C      0.488440000000     0.045890000000     0.517100000000    -0.135395   
C359     C      0.500840000000     0.071080000000     0.522800000000     0.0384038  
C360     C      0.488550000000     0.082600000000     0.535270000000    -0.0791555  
C361     C      0.155130000000     0.378860000000     0.851220000000    -0.135915   
C362     C      0.130180000000     0.364990000000     0.858570000000     0.0383424  
C363     C      0.117510000000     0.376050000000     0.871450000000    -0.0793609  
C364     C      0.129530000000     0.401200000000     0.877450000000     0.0354221  
C365     C      0.154360000000     0.415110000000     0.869560000000    -0.0796327  
C366     C      0.167000000000     0.404090000000     0.856530000000     0.0383644  
C367     C      0.116370000000     0.412900000000     0.892390000000    -0.00317673 
C368     C      0.093080000000     0.406690000000     0.880480000000    -0.0376574  
C369     C      0.080950000000     0.418070000000     0.894210000000    -0.0374473  
C370     C      0.091800000000     0.435850000000     0.920280000000    -0.00319875 
C371     C      0.114970000000     0.441770000000     0.932500000000    -0.037526   
C372     C      0.127110000000     0.430470000000     0.918680000000    -0.0375964  
C373     C      0.079280000000     0.448550000000     0.934140000000     0.0352668  
C374     C      0.054100000000     0.435900000000     0.940080000000    -0.0792372  
C375     C      0.042320000000     0.448070000000     0.952190000000     0.0379224  
C376     C      0.055460000000     0.473160000000     0.958730000000    -0.135553   
C377     C      0.080680000000     0.485730000000     0.953260000000     0.038234   
C378     C      0.092420000000     0.473580000000     0.941060000000    -0.0792275  
C379     C      0.328190000000     0.219290000000     0.682420000000    -0.135585   
C380     C      0.302950000000     0.207240000000     0.687540000000     0.038393   
C381     C      0.291680000000     0.219740000000     0.700110000000    -0.0794347  
C382     C      0.305330000000     0.244640000000     0.707750000000     0.0355103  
C383     C      0.330530000000     0.256800000000     0.702130000000    -0.0791307  
C384     C      0.341840000000     0.244260000000     0.689660000000     0.0384003  
C385     C      0.293270000000     0.257680000000     0.722100000000    -0.00309884 
C386     C      0.270300000000     0.252430000000     0.709920000000    -0.0374725  
C387     C      0.258490000000     0.263880000000     0.724360000000    -0.0376197  
C388     C      0.269400000000     0.280960000000     0.751210000000    -0.00308619 
C389     C      0.292550000000     0.286580000000     0.763000000000    -0.0375422  
C390     C      0.304330000000     0.275020000000     0.748670000000    -0.0372389  
C391     C      0.256500000000     0.292670000000     0.766930000000     0.0355587  
C392     C      0.231680000000     0.278840000000     0.774870000000    -0.0796832  
C393     C      0.219220000000     0.289870000000     0.788500000000     0.0384684  
C394     C      0.231260000000     0.315040000000     0.794340000000    -0.135833   
C395     C      0.256220000000     0.328830000000     0.787010000000     0.0384593  
C396     C      0.268720000000     0.317740000000     0.773560000000    -0.0792023  
C397     C      0.515410000000     0.501770000000     0.888580000000    -0.136263   
C398     C      0.501330000000     0.509390000000     0.870090000000     0.0390371  
C399     C      0.499000000000     0.506750000000     0.833920000000    -0.0789749  
C400     C      0.510400000000     0.496080000000     0.815460000000     0.03557    
C401     C      0.523640000000     0.487540000000     0.834320000000    -0.0792227  
C402     C      0.526290000000     0.490560000000     0.870370000000     0.0395636  
C403     C      0.509470000000     0.494870000000     0.776670000000    -0.00311622 
C404     C      0.488710000000     0.491200000000     0.758360000000    -0.0371459  
C405     C      0.488470000000     0.491350000000     0.721930000000    -0.0379482  
C406     C      0.508840000000     0.494790000000     0.703040000000    -0.00297822 
C407     C      0.529390000000     0.498000000000     0.721200000000    -0.0376456  
C408     C      0.529780000000     0.498220000000     0.757530000000    -0.0369339  
C409     C      0.509180000000     0.495960000000     0.664510000000     0.035693   
C410     C      0.502400000000     0.511120000000     0.647140000000    -0.0793105  
C411     C      0.504870000000     0.513970000000     0.611010000000     0.0388363  
C412     C      0.513850000000     0.501450000000     0.591500000000    -0.135786   
C413     C      0.519730000000     0.485560000000     0.608810000000     0.0387387  
C414     C      0.517580000000     0.482990000000     0.644970000000    -0.0797045  
C415     C      0.542760000000     0.532380000000     0.091490000000    -0.135686   
C416     C      0.558810000000     0.526540000000     0.108420000000     0.0387872  
C417     C      0.561380000000     0.528330000000     0.144580000000    -0.0798178  
C418     C      0.548260000000     0.536340000000     0.164540000000     0.035664   
C419     C      0.532920000000     0.543080000000     0.147600000000    -0.0793902  
C420     C      0.530050000000     0.540940000000     0.111430000000     0.0386065  
C421     C      0.549580000000     0.536390000000     0.203050000000    -0.00304433 
C422     C      0.546490000000     0.515720000000     0.220740000000    -0.0376961  
C423     C      0.546640000000     0.515140000000     0.257060000000    -0.0369794  
C424     C      0.550260000000     0.535380000000     0.276650000000    -0.00309754 
C425     C      0.553800000000     0.556260000000     0.258770000000    -0.0372594  
C426     C      0.553260000000     0.556670000000     0.222370000000    -0.0379469  
C427     C      0.549450000000     0.534280000000     0.315460000000     0.0354216  
C428     C      0.558020000000     0.520830000000     0.333730000000    -0.0790334  
C429     C      0.555410000000     0.518110000000     0.369850000000     0.0392079  
C430     C      0.544610000000     0.529150000000     0.388670000000    -0.135973   
C431     C      0.536930000000     0.543400000000     0.370730000000     0.0387835  
C432     C      0.539150000000     0.545780000000     0.334540000000    -0.0788853  
C433     C      0.871840000000     0.199320000000     0.757620000000    -0.136541   
C434     C      0.893900000000     0.204930000000     0.773780000000     0.039273   
C435     C      0.896120000000     0.206650000000     0.810040000000    -0.0796653  
C436     C      0.876240000000     0.202500000000     0.830790000000     0.036253   
C437     C      0.854480000000     0.197700000000     0.814630000000    -0.0802226  
C438     C      0.852340000000     0.196260000000     0.778430000000     0.039485   
C439     C      0.877650000000     0.201710000000     0.869200000000    -0.00338143 
C440     C      0.897340000000     0.220130000000     0.887580000000    -0.0374452  
C441     C      0.898450000000     0.219040000000     0.923890000000    -0.0376033  
C442     C      0.880100000000     0.199300000000     0.942270000000    -0.00318451 
C443     C      0.860530000000     0.180850000000     0.923810000000    -0.0374509  
C444     C      0.859260000000     0.182110000000     0.887690000000    -0.0372138  
C445     C      0.880940000000     0.197890000000     0.980680000000     0.0361012  
C446     C      0.885000000000     0.217720000000     0.001470000000    -0.079499   
C447     C      0.883360000000     0.215490000000     0.037730000000     0.0391331  
C448     C      0.877920000000     0.193470000000     0.053850000000    -0.136219   
C449     C      0.874930000000     0.174010000000     0.033000000000     0.0395039  
C450     C      0.876280000000     0.176160000000     0.996800000000    -0.0800636  
C451     C      0.847340000000     0.171260000000     0.257410000000    -0.136204   
C452     C      0.848780000000     0.190020000000     0.278400000000     0.0390535  
C453     C      0.846190000000     0.187210000000     0.314480000000    -0.0792504  
C454     C      0.841920000000     0.165510000000     0.330430000000     0.0357991  
C455     C      0.839710000000     0.146460000000     0.309290000000    -0.0795289  
C456     C      0.842450000000     0.149330000000     0.273220000000     0.0391586  
C457     C      0.840890000000     0.163220000000     0.369010000000    -0.00298471 
C458     C      0.829830000000     0.173480000000     0.389100000000    -0.0372571  
C459     C      0.830450000000     0.172880000000     0.425420000000    -0.0372835  
C460     C      0.842030000000     0.161870000000     0.442570000000    -0.00286913 
C461     C      0.852440000000     0.150960000000     0.422480000000    -0.0374292  
C462     C      0.851940000000     0.151690000000     0.386160000000    -0.0371037  
C463     C      0.844210000000     0.162820000000     0.481170000000     0.035686   
C464     C      0.825080000000     0.160460000000     0.502230000000    -0.0794265  
C465     C      0.827860000000     0.163180000000     0.538310000000     0.0389619  
C466     C      0.849800000000     0.168160000000     0.554210000000    -0.136187   
C467     C      0.868650000000     0.169730000000     0.533300000000     0.0390211  
C468     C      0.865920000000     0.167180000000     0.497210000000    -0.079176   
C469     C      0.178380000000     0.346520000000     0.721510000000    -0.13593    
C470     C      0.190030000000     0.367770000000     0.701340000000     0.0389206  
C471     C      0.187130000000     0.366730000000     0.665180000000    -0.0794836  
C472     C      0.172820000000     0.344370000000     0.648440000000     0.0355826  
C473     C      0.160720000000     0.323200000000     0.668630000000    -0.0799089  
C474     C      0.163310000000     0.324280000000     0.704830000000     0.0385769  
C475     C      0.171670000000     0.342990000000     0.609920000000    -0.00317827 
C476     C      0.167080000000     0.358930000000     0.590370000000    -0.0380576  
C477     C      0.167140000000     0.358250000000     0.553980000000    -0.0373225  
C478     C      0.172210000000     0.341880000000     0.536310000000    -0.00320026 
C479     C      0.176570000000     0.325790000000     0.556110000000    -0.0371726  
C480     C      0.176130000000     0.326240000000     0.592440000000    -0.0376897  
C481     C      0.173890000000     0.342140000000     0.497550000000     0.0352495  
C482     C      0.183560000000     0.364120000000     0.478990000000    -0.0789957  
C483     C      0.186470000000     0.364580000000     0.442890000000     0.0387583  
C484     C      0.180130000000     0.343150000000     0.424490000000    -0.135853   
C485     C      0.170060000000     0.321110000000     0.442810000000     0.038647   
C486     C      0.166780000000     0.320590000000     0.478850000000    -0.0789385  
C487     C      0.211780000000     0.350050000000     0.221440000000    -0.135786   
C488     C      0.221900000000     0.372110000000     0.203200000000     0.0390261  
C489     C      0.224610000000     0.372620000000     0.167050000000    -0.0790406  
C490     C      0.216850000000     0.351010000000     0.148170000000     0.0353529  
C491     C      0.207250000000     0.329000000000     0.166660000000    -0.0788872  
C492     C      0.204910000000     0.328560000000     0.202880000000     0.0386605  
C493     C      0.217730000000     0.351280000000     0.109340000000    -0.00316804 
C494     C      0.213240000000     0.367570000000     0.090310000000    -0.0369689  
C495     C      0.212950000000     0.367190000000     0.053960000000    -0.0378632  
C496     C      0.216790000000     0.350290000000     0.035710000000    -0.00289469 
C497     C      0.221460000000     0.334110000000     0.054490000000    -0.0380652  
C498     C      0.222120000000     0.334720000000     0.090890000000    -0.0371862  
C499     C      0.214970000000     0.349070000000     0.997220000000     0.0354787  
C500     C      0.226950000000     0.370300000000     0.977130000000    -0.0796982  
C501     C      0.223870000000     0.369380000000     0.941030000000     0.0386096  
C502     C      0.208440000000     0.347250000000     0.924340000000    -0.135615   
C503     C      0.196850000000     0.325930000000     0.944400000000     0.0386466  
C504     C      0.200230000000     0.326810000000     0.980460000000    -0.0793814  
C505     C      0.126210000000     0.313140000000     0.294120000000    -0.135892   
C506     C      0.113430000000     0.287900000000     0.288790000000     0.0384028  
C507     C      0.089790000000     0.276380000000     0.275690000000    -0.0798516  
C508     C      0.078320000000     0.289800000000     0.267680000000     0.0355643  
C509     C      0.090900000000     0.314970000000     0.273610000000    -0.0793915  
C510     C      0.114590000000     0.326520000000     0.286640000000     0.0383266  
C511     C      0.053470000000     0.277620000000     0.252710000000    -0.00392412 
C512     C      0.046870000000     0.259850000000     0.226750000000    -0.03786    
C513     C      0.023510000000     0.248340000000     0.212640000000    -0.0368807  
C514     C      0.006160000000     0.254300000000     0.224190000000    -0.00754644 
C515     C      0.012790000000     0.272130000000     0.250100000000    -0.0433007  
C516     C      0.036180000000     0.283670000000     0.264160000000    -0.0358206  
C517     C      0.981170000000     0.241780000000     0.209580000000     0.0416875  
C518     C      0.969070000000     0.216690000000     0.203000000000    -0.0807747  
C519     C      0.945320000000     0.204790000000     0.190270000000     0.0399478  
C520     C      0.933070000000     0.217700000000     0.183870000000    -0.136287   
C521     C      0.945310000000     0.242850000000     0.189930000000     0.0402018  
C522     C      0.969070000000     0.254750000000     0.202610000000    -0.0810961  
C523     C      0.266110000000     0.380120000000     0.351570000000    -0.135564   
C524     C      0.277960000000     0.366850000000     0.358140000000     0.0383851  
C525     C      0.301800000000     0.378470000000     0.370610000000    -0.0789957  
C526     C      0.314330000000     0.403610000000     0.376850000000     0.0355195  
C527     C      0.302550000000     0.416890000000     0.369900000000    -0.079359   
C528     C      0.278760000000     0.405300000000     0.357370000000     0.0384818  
C529     C      0.339440000000     0.415950000000     0.391060000000    -0.00298802 
C530     C      0.346110000000     0.404930000000     0.417260000000    -0.0372476  
C531     C      0.369530000000     0.416860000000     0.431270000000    -0.0374291  
C532     C      0.386770000000     0.440110000000     0.419480000000    -0.00300696 
C533     C      0.380170000000     0.451020000000     0.393080000000    -0.0374349  
C534     C      0.356810000000     0.439070000000     0.379000000000    -0.0373916  
C535     C      0.411560000000     0.453010000000     0.434620000000     0.0356336  
C536     C      0.424400000000     0.440700000000     0.440910000000    -0.0791508  
C537     C      0.448080000000     0.453120000000     0.453990000000     0.0385041  
C538     C      0.459380000000     0.478100000000     0.461220000000    -0.135607   
C539     C      0.446310000000     0.490270000000     0.455600000000     0.0384359  
C540     C      0.422710000000     0.477880000000     0.442400000000    -0.0794822  
C541     C      0.545480000000     0.020130000000     0.887610000000    -0.135596   
C542     C      0.550600000000     0.003170000000     0.872120000000     0.0386203  
C543     C      0.553220000000     0.002810000000     0.836020000000    -0.0789412  
C544     C      0.550600000000     0.019290000000     0.814530000000     0.0352298  
C545     C      0.546100000000     0.036650000000     0.830190000000    -0.0789733  
C546     C      0.543680000000     0.037130000000     0.866270000000     0.0385166  
C547     C      0.551320000000     0.017680000000     0.775920000000    -0.00271071 
C548     C      0.540620000000     0.994960000000     0.759290000000    -0.0374798  
C549     C      0.539620000000     0.993350000000     0.723000000000    -0.0375925  
C550     C      0.549130000000     0.014400000000     0.702360000000    -0.00280501 
C551     C      0.560460000000     0.037140000000     0.718960000000    -0.0372775  
C552     C      0.561610000000     0.038760000000     0.755260000000    -0.0375224  
C553     C      0.546190000000     0.012660000000     0.663820000000     0.0355438  
C554     C      0.524490000000     0.994560000000     0.648760000000    -0.0792781  
C555     C      0.521010000000     0.993700000000     0.612770000000     0.0385212  
C556     C      0.539050000000     0.011040000000     0.590920000000    -0.135537   
C557     C      0.560960000000     0.028850000000     0.605830000000     0.0383793  
C558     C      0.564510000000     0.029600000000     0.641840000000    -0.0791242  
C559     C      0.511770000000     0.013710000000     0.387680000000    -0.135884   
C560     C      0.523950000000     0.035160000000     0.368010000000     0.0389992  
C561     C      0.521250000000     0.034590000000     0.331830000000    -0.0795372  
C562     C      0.506630000000     0.012510000000     0.314600000000     0.0359459  
C563     C      0.494030000000     0.991160000000     0.334290000000    -0.0800477  
C564     C      0.496410000000     0.991780000000     0.370480000000     0.0388558  
C565     C      0.505580000000     0.011540000000     0.276090000000    -0.00281865 
C566     C      0.501250000000     0.027810000000     0.256960000000    -0.0380218  
C567     C      0.501220000000     0.027360000000     0.220550000000    -0.037111   
C568     C      0.505950000000     0.010900000000     0.202480000000    -0.00298206 
C569     C      0.510130000000     0.994540000000     0.221870000000    -0.0370828  
C570     C      0.509770000000     0.994740000000     0.258210000000    -0.0379734  
C571     C      0.507460000000     0.011320000000     0.163710000000     0.0356775  
C572     C      0.517270000000     0.033390000000     0.145360000000    -0.0789634  
C573     C      0.520060000000     0.033970000000     0.109230000000     0.0391021  
C574     C      0.513480000000     0.012570000000     0.090610000000    -0.136029   
C575     C      0.503240000000     0.990450000000     0.108710000000     0.0390251  
C576     C      0.500060000000     0.989800000000     0.144770000000    -0.079232   
C577     C      0.792910000000     0.147650000000     0.127540000000    -0.135585   
C578     C      0.780650000000     0.160580000000     0.121450000000     0.0384887  
C579     C      0.756910000000     0.148740000000     0.108670000000    -0.0792782  
C580     C      0.744840000000     0.123710000000     0.101790000000     0.035611   
C581     C      0.756930000000     0.110700000000     0.108460000000    -0.0793203  
C582     C      0.780700000000     0.122530000000     0.121140000000     0.0384689  
C583     C      0.719880000000     0.111270000000     0.087170000000    -0.00306441 
C584     C      0.713470000000     0.122190000000     0.060530000000    -0.0374173  
C585     C      0.690070000000     0.110410000000     0.046480000000    -0.0375464  
C586     C      0.672520000000     0.087430000000     0.058790000000    -0.00299473 
C587     C      0.678940000000     0.076530000000     0.085470000000    -0.0373281  
C588     C      0.702350000000     0.088300000000     0.099460000000    -0.0374073  
C589     C      0.647560000000     0.074960000000     0.044100000000     0.03555    
C590     C      0.635690000000     0.088070000000     0.036450000000    -0.0792552  
C591     C      0.611970000000     0.076250000000     0.023570000000     0.0384824  
C592     C      0.599530000000     0.051030000000     0.018080000000    -0.135846   
C593     C      0.611520000000     0.037980000000     0.025240000000     0.0386872  
C594     C      0.635260000000     0.049810000000     0.038070000000    -0.0792848  
C595     C      0.212010000000     0.859180000000     0.718810000000    -0.136631   
C596     C      0.209080000000     0.839640000000     0.698210000000     0.0393413  
C597     C      0.210460000000     0.841610000000     0.662000000000    -0.0802208  
C598     C      0.215080000000     0.863240000000     0.645610000000     0.035978   
C599     C      0.219140000000     0.883180000000     0.666150000000    -0.0798673  
C600     C      0.217470000000     0.881120000000     0.702430000000     0.0389696  
C601     C      0.214080000000     0.864390000000     0.607190000000    -0.00349912 
C602     C      0.194350000000     0.845880000000     0.589050000000    -0.0375107  
C603     C      0.192800000000     0.846970000000     0.552960000000    -0.0374994  
C604     C      0.211080000000     0.866460000000     0.534160000000    -0.00347549 
C605     C      0.230990000000     0.884880000000     0.552170000000    -0.0377835  
C606     C      0.232360000000     0.883970000000     0.588470000000    -0.0377425  
C607     C      0.209210000000     0.867230000000     0.495820000000     0.0359513  
C608     C      0.187370000000     0.862870000000     0.480400000000    -0.0802521  
C609     C      0.184760000000     0.861590000000     0.444280000000     0.0392431  
C610     C      0.203840000000     0.864340000000     0.422770000000    -0.136278   
C611     C      0.225960000000     0.869410000000     0.438180000000     0.0388101  
C612     C      0.228670000000     0.871000000000     0.474400000000    -0.0797458  
C613     C      0.180710000000     0.837530000000     0.922120000000    -0.136816   
C614     C      0.187170000000     0.822720000000     0.941140000000     0.0393731  
C615     C      0.184370000000     0.820770000000     0.977260000000    -0.0794256  
C616     C      0.174660000000     0.833280000000     0.995200000000     0.035541   
C617     C      0.167400000000     0.847410000000     0.975890000000    -0.0794242  
C618     C      0.170600000000     0.849680000000     0.939820000000     0.03943    
C619     C      0.173130000000     0.832410000000     0.033950000000    -0.00324563 
C620     C      0.168220000000     0.811270000000     0.052340000000    -0.0372792  
C621     C      0.168320000000     0.811050000000     0.088730000000    -0.0381129  
C622     C      0.172870000000     0.831820000000     0.107510000000    -0.00323704 
C623     C      0.177200000000     0.852750000000     0.089320000000    -0.037774   
C624     C      0.177510000000     0.853110000000     0.052990000000    -0.0370333  
C625     C      0.173950000000     0.832080000000     0.145990000000     0.0359319  
C626     C      0.188610000000     0.824700000000     0.163430000000    -0.0798802  
C627     C      0.191240000000     0.826910000000     0.199600000000     0.0394158  
C628     C      0.178950000000     0.836160000000     0.219020000000    -0.136893   
C629     C      0.163600000000     0.842710000000     0.201600000000     0.0393872  
C630     C      0.161290000000     0.840880000000     0.165420000000    -0.0803424  
C631     C      0.266650000000     0.884090000000     0.849440000000    -0.135812   
C632     C      0.278630000000     0.909190000000     0.855920000000     0.0387213  
C633     C      0.302330000000     0.921200000000     0.868840000000    -0.0793801  
C634     C      0.314600000000     0.908390000000     0.875680000000     0.0356472  
C635     C      0.302780000000     0.883370000000     0.868710000000    -0.0794213  
C636     C      0.279100000000     0.871360000000     0.855700000000     0.0384029  
C637     C      0.339490000000     0.921010000000     0.890560000000    -0.0030595  
C638     C      0.356920000000     0.944090000000     0.878440000000    -0.0374404  
C639     C      0.380270000000     0.956000000000     0.892640000000    -0.037341   
C640     C      0.386720000000     0.945140000000     0.919340000000    -0.00296666 
C641     C      0.369260000000     0.922080000000     0.931500000000    -0.037465   
C642     C      0.345930000000     0.910150000000     0.917260000000    -0.0374247  
C643     C      0.411660000000     0.957690000000     0.934120000000     0.0353889  
C644     C      0.423860000000     0.982830000000     0.940270000000    -0.0789237  
C645     C      0.447580000000     0.994730000000     0.953180000000     0.0379798  
C646     C      0.459660000000     0.981750000000     0.960250000000    -0.135305   
C647     C      0.447320000000     0.956540000000     0.954620000000     0.0382441  
C648     C      0.423620000000     0.944670000000     0.941690000000    -0.0791392  
C649     C      0.848510000000     0.679790000000     0.756730000000    -0.136849   
C650     C      0.843330000000     0.696490000000     0.773010000000     0.0395316  
C651     C      0.841750000000     0.696980000000     0.809260000000    -0.0799811  
C652     C      0.845600000000     0.680980000000     0.829900000000     0.0363647  
C653     C      0.849980000000     0.663770000000     0.813630000000    -0.0802896  
C654     C      0.851290000000     0.663090000000     0.777420000000     0.0396407  
C655     C      0.846440000000     0.683080000000     0.868300000000    -0.00343468 
C656     C      0.828340000000     0.684940000000     0.886660000000    -0.0375241  
C657     C      0.829450000000     0.687060000000     0.922950000000    -0.0376694  
C658     C      0.848900000000     0.687760000000     0.941350000000    -0.0032588  
C659     C      0.867050000000     0.686070000000     0.922910000000    -0.0373877  
C660     C      0.865770000000     0.683640000000     0.886790000000    -0.0371624  
C661     C      0.850200000000     0.689720000000     0.979770000000     0.0361492  
C662     C      0.830010000000     0.674370000000     0.000270000000    -0.0797845  
C663     C      0.832010000000     0.674570000000     0.036520000000     0.039387   
C664     C      0.854170000000     0.690320000000     0.052940000000    -0.136703   
C665     C      0.874030000000     0.706410000000     0.032420000000     0.0396637  
C666     C      0.872090000000     0.706020000000     0.996200000000    -0.0801295  
C667     C      0.877790000000     0.688620000000     0.552850000000    -0.136784   
C668     C      0.883080000000     0.671980000000     0.536610000000     0.0395245  
C669     C      0.884810000000     0.671570000000     0.500370000000    -0.0798853  
C670     C      0.881000000000     0.687600000000     0.479710000000     0.036336   
C671     C      0.876490000000     0.704720000000     0.495960000000    -0.080122   
C672     C      0.875030000000     0.705320000000     0.532150000000     0.0396841  
C673     C      0.880330000000     0.685600000000     0.441300000000    -0.00332877 
C674     C      0.898550000000     0.683860000000     0.423080000000    -0.037504   
C675     C      0.897590000000     0.681830000000     0.386780000000    -0.0374751  
C676     C      0.878170000000     0.681080000000     0.368230000000    -0.0033256  
C677     C      0.859910000000     0.682640000000     0.386530000000    -0.037304   
C678     C      0.861030000000     0.684990000000     0.422660000000    -0.0372903  
C679     C      0.877000000000     0.679160000000     0.329800000000     0.0363383  
C680     C      0.897200000000     0.694610000000     0.309410000000    -0.0798656  
C681     C      0.895290000000     0.694430000000     0.273140000000     0.0395751  
C682     C      0.873200000000     0.678600000000     0.256610000000    -0.136831   
C683     C      0.853330000000     0.662400000000     0.277040000000     0.0396511  
C684     C      0.855180000000     0.662770000000     0.313260000000    -0.0802248  
C685     C      0.599180000000     0.552470000000     0.518920000000    -0.135449   
C686     C      0.610460000000     0.577350000000     0.526820000000     0.0382093  
C687     C      0.634170000000     0.589630000000     0.539820000000    -0.0791018  
C688     C      0.647070000000     0.577290000000     0.545330000000     0.0355249  
C689     C      0.635940000000     0.552530000000     0.536900000000    -0.079519   
C690     C      0.612300000000     0.540280000000     0.523810000000     0.0383845  
C691     C      0.671940000000     0.590060000000     0.560270000000    -0.00301837 
C692     C      0.689060000000     0.613500000000     0.549000000000    -0.0375773  
C693     C      0.712540000000     0.625310000000     0.562810000000    -0.0373049  
C694     C      0.719410000000     0.613980000000     0.588280000000    -0.00300755 
C695     C      0.702190000000     0.590630000000     0.599770000000    -0.0374635  
C696     C      0.678750000000     0.578810000000     0.585910000000    -0.0374843  
C697     C      0.744550000000     0.626310000000     0.602400000000     0.0354141  
C698     C      0.756830000000     0.651330000000     0.609460000000    -0.0791512  
C699     C      0.780710000000     0.663010000000     0.621750000000     0.0383058  
C700     C      0.792870000000     0.649930000000     0.627330000000    -0.135482   
C701     C      0.780460000000     0.624830000000     0.620780000000     0.0383565  
C702     C      0.756610000000     0.613180000000     0.608430000000    -0.0790476  
C703     C      0.933290000000     0.718330000000     0.682400000000    -0.136295   
C704     C      0.945870000000     0.743470000000     0.688590000000     0.0399329  
C705     C      0.969660000000     0.755020000000     0.701200000000    -0.0807887  
C706     C      0.981460000000     0.741720000000     0.707880000000     0.0415609  
C707     C      0.969030000000     0.716660000000     0.701120000000    -0.0810907  
C708     C      0.945240000000     0.705100000000     0.688540000000     0.0399066  
C709     C      0.006490000000     0.753870000000     0.722380000000    -0.00757205 
C710     C      0.024070000000     0.776980000000     0.710560000000    -0.0369803  
C711     C      0.047480000000     0.788510000000     0.724530000000    -0.0379604  
C712     C      0.053890000000     0.777210000000     0.750640000000    -0.00399345 
C713     C      0.036340000000     0.754070000000     0.762360000000    -0.0358433  
C714     C      0.012910000000     0.742540000000     0.748430000000    -0.0434295  
C715     C      0.078800000000     0.789530000000     0.765460000000     0.0354507  
C716     C      0.090730000000     0.814470000000     0.772980000000    -0.0796314  
C717     C      0.114400000000     0.826240000000     0.785990000000     0.0383556  
C718     C      0.126750000000     0.813360000000     0.791730000000    -0.135827   
C719     C      0.114680000000     0.788330000000     0.784720000000     0.0382433  
C720     C      0.090970000000     0.776540000000     0.771770000000    -0.0795455  
H1       H      0.790760000000     0.110510000000     0.686680000000     0.0283737  
H2       H      0.770390000000     0.069070000000     0.708720000000     0.0472375  
H3       H      0.838600000000     0.069630000000     0.708630000000     0.0474306  
H4       H      0.858920000000     0.110880000000     0.685880000000     0.028818   
H5       H      0.768420000000     0.047570000000     0.761890000000     0.0367303  
H6       H      0.748410000000     0.006740000000     0.786330000000     0.0367456  
H7       H      0.789700000000     0.987330000000     0.717550000000     0.0367693  
H8       H      0.809640000000     0.028120000000     0.692970000000     0.0367007  
H9       H      0.719330000000     0.965030000000     0.769240000000     0.0474032  
H10      H      0.698880000000     0.923700000000     0.791730000000     0.0283501  
H11      H      0.767310000000     0.924650000000     0.793800000000     0.0286683  
H12      H      0.787770000000     0.966130000000     0.771810000000     0.0474555  
H13      H      0.023600000000     0.444210000000     0.518810000000     0.0332283  
H14      H      0.003310000000     0.403010000000     0.541890000000     0.0385945  
H15      H      0.934640000000     0.401400000000     0.538200000000     0.0454793  
H16      H      0.954910000000     0.442700000000     0.515630000000     0.0316206  
H17      H      0.974370000000     0.361090000000     0.525230000000     0.0384192  
H18      H      0.954260000000     0.320350000000     0.549990000000     0.0371872  
H19      H      0.912690000000     0.340020000000     0.617830000000     0.0365041  
H20      H      0.932720000000     0.380710000000     0.592920000000     0.0377022  
H21      H      0.951970000000     0.298990000000     0.603410000000     0.0481238  
H22      H      0.931460000000     0.257600000000     0.625590000000     0.0289275  
H23      H      0.863310000000     0.257250000000     0.625150000000     0.0284564  
H24      H      0.883780000000     0.298460000000     0.602250000000     0.0473435  
H25      H      0.119810000000     0.777620000000     0.350890000000     0.0279117  
H26      H      0.098490000000     0.735930000000     0.372080000000     0.0467965  
H27      H      0.165590000000     0.734310000000     0.370170000000     0.04714    
H28      H      0.186790000000     0.775700000000     0.348240000000     0.0283952  
H29      H      0.095910000000     0.713440000000     0.424350000000     0.0362672  
H30      H      0.075650000000     0.672550000000     0.448650000000     0.0363244  
H31      H      0.115880000000     0.652570000000     0.378680000000     0.036507   
H32      H      0.135990000000     0.693370000000     0.354150000000     0.0362919  
H33      H      0.046200000000     0.630580000000     0.431850000000     0.0468339  
H34      H      0.026050000000     0.589340000000     0.454780000000     0.0277916  
H35      H      0.094650000000     0.590600000000     0.455860000000     0.028096   
H36      H      0.114770000000     0.631940000000     0.433380000000     0.0471223  
H37      H      0.600800000000     0.589340000000     0.956440000000     0.0285143  
H38      H      0.621910000000     0.630590000000     0.933390000000     0.0475023  
H39      H      0.555660000000     0.633590000000     0.939880000000     0.0470911  
H40      H      0.534460000000     0.592330000000     0.962460000000     0.0282531  
H41      H      0.635630000000     0.672870000000     0.950540000000     0.0367495  
H42      H      0.656030000000     0.713740000000     0.926150000000     0.036706   
H43      H      0.594130000000     0.694550000000     0.859800000000     0.0364591  
H44      H      0.573700000000     0.653790000000     0.884420000000     0.0367039  
H45      H      0.674560000000     0.735800000000     0.873190000000     0.0472994  
H46      H      0.694950000000     0.777360000000     0.851620000000     0.0284788  
H47      H      0.626870000000     0.777130000000     0.853690000000     0.0283899  
H48      H      0.606640000000     0.735790000000     0.876030000000     0.04704    
H49      H      0.290280000000     0.109920000000     0.184570000000     0.0280944  
H50      H      0.269950000000     0.068680000000     0.207280000000     0.0470392  
H51      H      0.338410000000     0.069850000000     0.210210000000     0.0476456  
H52      H      0.358810000000     0.111060000000     0.187030000000     0.0286003  
H53      H      0.268490000000     0.048270000000     0.262350000000     0.0366274  
H54      H      0.247920000000     0.007490000000     0.286920000000     0.0363513  
H55      H      0.288120000000     0.986920000000     0.217740000000     0.036819   
H56      H      0.308850000000     0.027800000000     0.193410000000     0.0369438  
H57      H      0.218180000000     0.966550000000     0.270900000000     0.0467805  
H58      H      0.196650000000     0.925140000000     0.292880000000     0.0279519  
H59      H      0.263460000000     0.922870000000     0.291420000000     0.0285703  
H60      H      0.285080000000     0.964520000000     0.270210000000     0.0474725  
H61      H      0.523500000000     0.442640000000     0.018500000000     0.0281406  
H62      H      0.501820000000     0.401200000000     0.040250000000     0.0469867  
H63      H      0.435210000000     0.403770000000     0.041940000000     0.04753    
H64      H      0.457010000000     0.445490000000     0.020940000000     0.0286945  
H65      H      0.471930000000     0.360520000000     0.023640000000     0.0364349  
H66      H      0.451340000000     0.319590000000     0.047680000000     0.0367377  
H67      H      0.411300000000     0.339760000000     0.117720000000     0.0369762  
H68      H      0.432050000000     0.380810000000     0.093920000000     0.0369332  
H69      H      0.450090000000     0.298910000000     0.102400000000     0.0471359  
H70      H      0.429810000000     0.257540000000     0.124660000000     0.0282493  
H71      H      0.361300000000     0.256450000000     0.123260000000     0.0286258  
H72      H      0.381640000000     0.297790000000     0.100540000000     0.0476078  
H73      H      0.663230000000     0.842560000000     0.711560000000     0.0281685  
H74      H      0.664610000000     0.840190000000     0.648380000000     0.0479878  
H75      H      0.724170000000     0.826130000000     0.656670000000     0.0478259  
H76      H      0.722950000000     0.828560000000     0.720100000000     0.0278185  
H77      H      0.696610000000     0.868010000000     0.604660000000     0.037475   
H78      H      0.700540000000     0.870250000000     0.541420000000     0.037465   
H79      H      0.701980000000     0.803090000000     0.540690000000     0.0367639  
H80      H      0.698020000000     0.800830000000     0.604340000000     0.0368141  
H81      H      0.732760000000     0.875870000000     0.497190000000     0.0479811  
H82      H      0.733690000000     0.879850000000     0.434030000000     0.0281875  
H83      H      0.675930000000     0.805330000000     0.425440000000     0.0277751  
H84      H      0.675170000000     0.801440000000     0.488810000000     0.0477996  
H85      H      0.725240000000     0.901720000000     0.220600000000     0.0280799  
H86      H      0.725230000000     0.906440000000     0.157660000000     0.0471588  
H87      H      0.665190000000     0.833090000000     0.148890000000     0.047351   
H88      H      0.664720000000     0.828640000000     0.211790000000     0.0281734  
H89      H      0.735960000000     0.891840000000     0.107190000000     0.0366417  
H90      H      0.738170000000     0.893210000000     0.043940000000     0.0364747  
H91      H      0.659860000000     0.852960000000     0.038320000000     0.0364719  
H92      H      0.657650000000     0.852800000000     0.101540000000     0.0362432  
H93      H      0.731080000000     0.865650000000     0.997270000000     0.0475083  
H94      H      0.731720000000     0.861280000000     0.934470000000     0.0283793  
H95      H      0.670360000000     0.872560000000     0.924480000000     0.0279884  
H96      H      0.670200000000     0.877700000000     0.987270000000     0.0470063  
H97      H      0.771460000000     0.852170000000     0.292920000000     0.0284942  
H98      H      0.792420000000     0.831990000000     0.269490000000     0.0473557  
H99      H      0.724910000000     0.763820000000     0.268760000000     0.0473503  
H100     H      0.703860000000     0.783980000000     0.291530000000     0.0284548  
H101     H      0.804810000000     0.802360000000     0.284370000000     0.0367272  
H102     H      0.824970000000     0.781730000000     0.259600000000     0.0368726  
H103     H      0.764350000000     0.742130000000     0.190000000000     0.0367116  
H104     H      0.744220000000     0.762730000000     0.214710000000     0.0368853  
H105     H      0.844140000000     0.778740000000     0.206030000000     0.0475391  
H106     H      0.863820000000     0.756820000000     0.184390000000     0.0288076  
H107     H      0.794760000000     0.690130000000     0.185170000000     0.0284739  
H108     H      0.775260000000     0.711990000000     0.207340000000     0.0473318  
H109     H      0.695340000000     0.923470000000     0.353320000000     0.0283114  
H110     H      0.673690000000     0.943290000000     0.375290000000     0.0473231  
H111     H      0.606960000000     0.874370000000     0.376170000000     0.0471348  
H112     H      0.628440000000     0.854620000000     0.353460000000     0.0284762  
H113     H      0.654230000000     0.945290000000     0.428340000000     0.0366752  
H114     H      0.632740000000     0.964640000000     0.452760000000     0.0367681  
H115     H      0.571860000000     0.921700000000     0.385070000000     0.0365668  
H116     H      0.593390000000     0.902470000000     0.360450000000     0.036429   
H117     H      0.618830000000     0.992810000000     0.435240000000     0.047448   
H118     H      0.597190000000     0.012530000000     0.457640000000     0.0288086  
H119     H      0.531010000000     0.943110000000     0.461740000000     0.0282125  
H120     H      0.552810000000     0.923400000000     0.439800000000     0.0470946  
H121     H      0.989270000000     0.488000000000     0.872940000000     0.0334243  
H122     H      0.990710000000     0.494350000000     0.810430000000     0.0518894  
H123     H      0.051780000000     0.566710000000     0.823550000000     0.0465586  
H124     H      0.050840000000     0.560010000000     0.886150000000     0.0277728  
H125     H      0.062360000000     0.553860000000     0.771530000000     0.0362454  
H126     H      0.065020000000     0.557020000000     0.708420000000     0.0360791  
H127     H      0.986760000000     0.517350000000     0.701560000000     0.0408369  
H128     H      0.984100000000     0.515530000000     0.764720000000     0.040708   
H129     H      0.058450000000     0.530900000000     0.660540000000     0.0470563  
H130     H      0.059450000000     0.527450000000     0.597690000000     0.0283038  
H131     H      0.997720000000     0.538190000000     0.588270000000     0.0329359  
H132     H      0.997240000000     0.542490000000     0.651270000000     0.0514717  
H133     H      0.983750000000     0.471230000000     0.090560000000     0.0357553  
H134     H      0.982560000000     0.467340000000     0.153880000000     0.044257   
H135     H      0.059890000000     0.516170000000     0.158580000000     0.0458842  
H136     H      0.061160000000     0.520350000000     0.095210000000     0.028742   
H137     H      0.990670000000     0.498690000000     0.202550000000     0.042369   
H138     H      0.990310000000     0.500200000000     0.265790000000     0.0408969  
H139     H      0.048310000000     0.483340000000     0.269740000000     0.0356768  
H140     H      0.049270000000     0.483020000000     0.206210000000     0.0371406  
H141     H      0.980760000000     0.478360000000     0.317730000000     0.0468989  
H142     H      0.982010000000     0.484710000000     0.380380000000     0.0275007  
H143     H      0.059750000000     0.515100000000     0.379460000000     0.0269159  
H144     H      0.058790000000     0.509990000000     0.316700000000     0.0464295  
H145     H      0.932770000000     0.678520000000     0.125190000000     0.028897   
H146     H      0.952100000000     0.656590000000     0.102580000000     0.0480678  
H147     H      0.882590000000     0.590550000000     0.100110000000     0.0473587  
H148     H      0.863290000000     0.612330000000     0.123440000000     0.0285953  
H149     H      0.953710000000     0.637700000000     0.048640000000     0.0370143  
H150     H      0.972940000000     0.616280000000     0.023610000000     0.0383384  
H151     H      0.929530000000     0.554780000000     0.090050000000     0.0375294  
H152     H      0.910360000000     0.576230000000     0.115230000000     0.0364946  
H153     H      0.000970000000     0.602310000000     0.040930000000     0.0386477  
H154     H      0.020930000000     0.580980000000     0.018340000000     0.0332997  
H155     H      0.951670000000     0.514670000000     0.013090000000     0.031336   
H156     H      0.931700000000     0.536190000000     0.035210000000     0.0454649  
H157     H      0.321050000000     0.142380000000     0.758090000000     0.0274947  
H158     H      0.319190000000     0.137570000000     0.821300000000     0.0475058  
H159     H      0.396710000000     0.184990000000     0.827680000000     0.0477657  
H160     H      0.398650000000     0.190070000000     0.764460000000     0.0275487  
H161     H      0.327370000000     0.168090000000     0.870990000000     0.0373988  
H162     H      0.326630000000     0.168860000000     0.934260000000     0.0363908  
H163     H      0.383900000000     0.150940000000     0.937850000000     0.036005   
H164     H      0.385230000000     0.151320000000     0.874330000000     0.0368143  
H165     H      0.316560000000     0.146460000000     0.985750000000     0.0468988  
H166     H      0.317570000000     0.152350000000     0.048490000000     0.0271565  
H167     H      0.395190000000     0.181840000000     0.048230000000     0.0273315  
H168     H      0.394460000000     0.177170000000     0.985390000000     0.0469046  
H169     H      0.402660000000     0.215280000000     0.260800000000     0.0272686  
H170     H      0.403710000000     0.220440000000     0.323690000000     0.0468934  
H171     H      0.325690000000     0.188830000000     0.324590000000     0.0467791  
H172     H      0.324920000000     0.184880000000     0.261590000000     0.0272508  
H173     H      0.393940000000     0.197180000000     0.374300000000     0.036465   
H174     H      0.393370000000     0.196980000000     0.437600000000     0.0373499  
H175     H      0.334930000000     0.212930000000     0.436650000000     0.0368132  
H176     H      0.336060000000     0.214270000000     0.373120000000     0.0359651  
H177     H      0.401450000000     0.226650000000     0.488290000000     0.047565   
H178     H      0.399890000000     0.221160000000     0.551370000000     0.0275661  
H179     H      0.322340000000     0.173090000000     0.545320000000     0.0274865  
H180     H      0.323980000000     0.178830000000     0.482240000000     0.0476889  
H181     H      0.359740000000     0.109010000000     0.622900000000     0.0285282  
H182     H      0.379320000000     0.087310000000     0.599900000000     0.047535   
H183     H      0.448810000000     0.153210000000     0.604440000000     0.0471243  
H184     H      0.429330000000     0.174990000000     0.627060000000     0.0281751  
H185     H      0.408140000000     0.073520000000     0.616970000000     0.0367786  
H186     H      0.428320000000     0.052770000000     0.592630000000     0.0367474  
H187     H      0.469640000000     0.113620000000     0.524010000000     0.0363596  
H188     H      0.449690000000     0.134410000000     0.548680000000     0.0366456  
H189     H      0.431700000000     0.033340000000     0.540630000000     0.0472638  
H190     H      0.453220000000     0.013130000000     0.519450000000     0.0284827  
H191     H      0.520170000000     0.081920000000     0.518220000000     0.0284289  
H192     H      0.498820000000     0.101930000000     0.540190000000     0.0470142  
H193     H      0.120460000000     0.345520000000     0.854800000000     0.0281588  
H194     H      0.098420000000     0.364830000000     0.877500000000     0.0471205  
H195     H      0.164050000000     0.434570000000     0.873420000000     0.0471113  
H196     H      0.186180000000     0.415360000000     0.851110000000     0.028078   
H197     H      0.084430000000     0.393390000000     0.859990000000     0.0363938  
H198     H      0.063290000000     0.413320000000     0.883820000000     0.036256   
H199     H      0.123680000000     0.455030000000     0.953000000000     0.0362039  
H200     H      0.144860000000     0.435330000000     0.928850000000     0.0365075  
H201     H      0.043480000000     0.416550000000     0.935500000000     0.0466785  
H202     H      0.022890000000     0.437800000000     0.956230000000     0.0276975  
H203     H      0.091380000000     0.505070000000     0.957830000000     0.0283052  
H204     H      0.111770000000     0.483980000000     0.936310000000     0.0468929  
H205     H      0.291860000000     0.187990000000     0.682440000000     0.0280319  
H206     H      0.272290000000     0.209700000000     0.704610000000     0.0467602  
H207     H      0.341550000000     0.276040000000     0.707270000000     0.0474875  
H208     H      0.361320000000     0.254130000000     0.685910000000     0.0285979  
H209     H      0.261450000000     0.239530000000     0.689040000000     0.036142   
H210     H      0.240850000000     0.259490000000     0.714280000000     0.0364868  
H211     H      0.301320000000     0.299510000000     0.783870000000     0.0369936  
H212     H      0.321860000000     0.279270000000     0.759020000000     0.0368486  
H213     H      0.221850000000     0.259420000000     0.770540000000     0.0469663  
H214     H      0.200030000000     0.278660000000     0.793880000000     0.0279046  
H215     H      0.266060000000     0.348260000000     0.791190000000     0.0285667  
H216     H      0.287820000000     0.328900000000     0.767510000000     0.0476985  
H217     H      0.492840000000     0.518250000000     0.883390000000     0.027038   
H218     H      0.488950000000     0.513870000000     0.820390000000     0.04701    
H219     H      0.532170000000     0.478670000000     0.821240000000     0.0470168  
H220     H      0.537030000000     0.484230000000     0.883970000000     0.0270474  
H221     H      0.472570000000     0.488160000000     0.772100000000     0.0360634  
H222     H      0.472320000000     0.488660000000     0.708510000000     0.0369154  
H223     H      0.545490000000     0.501070000000     0.707270000000     0.0373394  
H224     H      0.546320000000     0.501670000000     0.770520000000     0.0364823  
H225     H      0.496000000000     0.521440000000     0.661630000000     0.0477968  
H226     H      0.500110000000     0.526280000000     0.598440000000     0.0277467  
H227     H      0.526730000000     0.475670000000     0.594590000000     0.0277392  
H228     H      0.522770000000     0.471060000000     0.657730000000     0.0475818  
H229     H      0.568840000000     0.519850000000     0.093870000000     0.0278539  
H230     H      0.573460000000     0.523200000000     0.157010000000     0.047641   
H231     H      0.522500000000     0.549180000000     0.162450000000     0.047779   
H232     H      0.517610000000     0.545650000000     0.099170000000     0.0276072  
H233     H      0.543270000000     0.499700000000     0.206460000000     0.0374699  
H234     H      0.543280000000     0.498530000000     0.269710000000     0.0365428  
H235     H      0.557050000000     0.572350000000     0.272830000000     0.0359624  
H236     H      0.555880000000     0.572910000000     0.209290000000     0.0367877  
H237     H      0.566600000000     0.512200000000     0.320160000000     0.0470071  
H238     H      0.561740000000     0.507220000000     0.383000000000     0.0271354  
H239     H      0.528360000000     0.551980000000     0.384480000000     0.0271998  
H240     H      0.531990000000     0.555970000000     0.321500000000     0.0468611  
H241     H      0.909300000000     0.207480000000     0.758490000000     0.0282765  
H242     H      0.913070000000     0.210280000000     0.821890000000     0.0483153  
H243     H      0.838970000000     0.194690000000     0.830050000000     0.0479905  
H244     H      0.835100000000     0.191950000000     0.766870000000     0.0281274  
H245     H      0.911720000000     0.235460000000     0.873900000000     0.0372608  
H246     H      0.913750000000     0.233460000000     0.937550000000     0.0373902  
H247     H      0.846020000000     0.165560000000     0.937380000000     0.0375407  
H248     H      0.844000000000     0.167540000000     0.874130000000     0.0374589  
H249     H      0.888530000000     0.234640000000     0.989650000000     0.0480248  
H250     H      0.885860000000     0.230860000000     0.053060000000     0.0281656  
H251     H      0.870740000000     0.156800000000     0.044520000000     0.028434   
H252     H      0.873340000000     0.160690000000     0.981340000000     0.0482764  
H253     H      0.852630000000     0.207190000000     0.267100000000     0.0284634  
H254     H      0.848350000000     0.202390000000     0.329930000000     0.0477015  
H255     H      0.836000000000     0.129360000000     0.320640000000     0.0472772  
H256     H      0.841040000000     0.134430000000     0.257790000000     0.0281368  
H257     H      0.820860000000     0.182220000000     0.376770000000     0.0363899  
H258     H      0.822450000000     0.181680000000     0.440010000000     0.036626   
H259     H      0.861210000000     0.142040000000     0.434810000000     0.0365895  
H260     H      0.860850000000     0.143800000000     0.371570000000     0.0367365  
H261     H      0.807970000000     0.156690000000     0.490810000000     0.0471184  
H262     H      0.812900000000     0.161670000000     0.553680000000     0.02805    
H263     H      0.885820000000     0.173660000000     0.544660000000     0.0286024  
H264     H      0.881160000000     0.169440000000     0.481810000000     0.047805   
H265     H      0.201720000000     0.385190000000     0.713420000000     0.0275244  
H266     H      0.196780000000     0.383300000000     0.650180000000     0.0478137  
H267     H      0.149460000000     0.305760000000     0.656360000000     0.0471691  
H268     H      0.154130000000     0.307560000000     0.719590000000     0.0271926  
H269     H      0.163370000000     0.371880000000     0.603260000000     0.0366219  
H270     H      0.163220000000     0.370600000000     0.539740000000     0.0357965  
H271     H      0.181040000000     0.313270000000     0.543640000000     0.0362867  
H272     H      0.180060000000     0.313960000000     0.606910000000     0.0371247  
H273     H      0.189650000000     0.381160000000     0.492380000000     0.0469069  
H274     H      0.194460000000     0.381890000000     0.429560000000     0.0273669  
H275     H      0.164770000000     0.304250000000     0.429320000000     0.0270235  
H276     H      0.158760000000     0.303230000000     0.492030000000     0.0465005  
H277     H      0.227590000000     0.389020000000     0.216820000000     0.0271376  
H278     H      0.232620000000     0.389980000000     0.153920000000     0.0468821  
H279     H      0.200710000000     0.311930000000     0.153150000000     0.0467666  
H280     H      0.196880000000     0.311240000000     0.216160000000     0.027192   
H281     H      0.209240000000     0.380230000000     0.103410000000     0.0363472  
H282     H      0.208970000000     0.379640000000     0.040120000000     0.0372996  
H283     H      0.224690000000     0.321040000000     0.040990000000     0.0368439  
H284     H      0.226090000000     0.322190000000     0.104520000000     0.0359328  
H285     H      0.238530000000     0.387660000000     0.989410000000     0.0475067  
H286     H      0.233020000000     0.386140000000     0.926360000000     0.0275801  
H287     H      0.184910000000     0.308600000000     0.932310000000     0.0274639  
H288     H      0.190670000000     0.310200000000     0.995380000000     0.0476009  
H289     H      0.121770000000     0.277000000000     0.294340000000     0.0279039  
H290     H      0.080450000000     0.256920000000     0.271900000000     0.0467165  
H291     H      0.082640000000     0.325850000000     0.267420000000     0.0471606  
H292     H      0.123900000000     0.345990000000     0.290370000000     0.0283986  
H293     H      0.059900000000     0.255060000000     0.216960000000     0.0362584  
H294     H      0.019130000000     0.234970000000     0.192340000000     0.0346132  
H295     H      0.999760000000     0.276870000000     0.260000000000     0.0417274  
H296     H      0.040600000000     0.297060000000     0.284440000000     0.0353307  
H297     H      0.977760000000     0.206110000000     0.208460000000     0.0492799  
H298     H      0.936430000000     0.185390000000     0.186030000000     0.0286192  
H299     H      0.936480000000     0.253390000000     0.185150000000     0.0286266  
H300     H      0.978000000000     0.274150000000     0.206860000000     0.0492834  
H301     H      0.268790000000     0.347440000000     0.353870000000     0.028542   
H302     H      0.310460000000     0.367750000000     0.375220000000     0.0473838  
H303     H      0.311520000000     0.436210000000     0.374860000000     0.047029   
H304     H      0.270180000000     0.416100000000     0.352770000000     0.0282122  
H305     H      0.333090000000     0.387290000000     0.427520000000     0.0369119  
H306     H      0.374000000000     0.408090000000     0.451840000000     0.0369899  
H307     H      0.393180000000     0.468740000000     0.383000000000     0.0367069  
H308     H      0.352420000000     0.447900000000     0.358420000000     0.0364159  
H309     H      0.416370000000     0.421580000000     0.434940000000     0.0477211  
H310     H      0.457600000000     0.443170000000     0.457980000000     0.0287282  
H311     H      0.454410000000     0.509480000000     0.460940000000     0.0281794  
H312     H      0.413150000000     0.487790000000     0.438330000000     0.0471863  
H313     H      0.552300000000     0.989930000000     0.887810000000     0.0277878  
H314     H      0.557110000000     0.989470000000     0.824950000000     0.0467656  
H315     H      0.543610000000     0.049400000000     0.814510000000     0.0472965  
H316     H      0.539640000000     0.050380000000     0.877290000000     0.0283482  
H317     H      0.532290000000     0.978320000000     0.774280000000     0.0364361  
H318     H      0.531110000000     0.975540000000     0.711130000000     0.0362871  
H319     H      0.567790000000     0.053750000000     0.703980000000     0.0363941  
H320     H      0.570330000000     0.056570000000     0.767140000000     0.0362352  
H321     H      0.509810000000     0.981440000000     0.664830000000     0.047399   
H322     H      0.503860000000     0.979800000000     0.602220000000     0.0284539  
H323     H      0.575310000000     0.042390000000     0.589730000000     0.0280064  
H324     H      0.581610000000     0.043540000000     0.652460000000     0.0469267  
H325     H      0.535850000000     0.052350000000     0.380510000000     0.0275443  
H326     H      0.531270000000     0.051280000000     0.317210000000     0.0479577  
H327     H      0.482520000000     0.973930000000     0.321610000000     0.0476351  
H328     H      0.486820000000     0.974910000000     0.384840000000     0.0276266  
H329     H      0.497770000000     0.040800000000     0.270180000000     0.0369941  
H330     H      0.497470000000     0.039940000000     0.206630000000     0.036071   
H331     H      0.514370000000     0.981950000000     0.209090000000     0.0364085  
H332     H      0.513490000000     0.982220000000     0.272360000000     0.0374313  
H333     H      0.523560000000     0.050410000000     0.158930000000     0.0470287  
H334     H      0.528180000000     0.051350000000     0.096060000000     0.0273866  
H335     H      0.497770000000     0.973610000000     0.095020000000     0.0270862  
H336     H      0.491910000000     0.972380000000     0.157770000000     0.0469078  
H337     H      0.789470000000     0.179920000000     0.126140000000     0.0285806  
H338     H      0.747960000000     0.159210000000     0.104260000000     0.047312   
H339     H      0.748220000000     0.091440000000     0.103110000000     0.0474793  
H340     H      0.789590000000     0.112000000000     0.125480000000     0.0284805  
H341     H      0.726670000000     0.139710000000     0.050100000000     0.0367273  
H342     H      0.685850000000     0.119160000000     0.025620000000     0.0365399  
H343     H      0.665750000000     0.059030000000     0.095960000000     0.036934   
H344     H      0.706620000000     0.079540000000     0.120280000000     0.0368684  
H345     H      0.644530000000     0.107420000000     0.041160000000     0.0470997  
H346     H      0.603280000000     0.086880000000     0.018470000000     0.028247   
H347     H      0.602540000000     0.018550000000     0.021200000000     0.0285019  
H348     H      0.644000000000     0.039230000000     0.043160000000     0.0474341  
H349     H      0.204890000000     0.822490000000     0.709940000000     0.0281606  
H350     H      0.207510000000     0.826050000000     0.646730000000     0.0479029  
H351     H      0.222630000000     0.900030000000     0.654100000000     0.0476427  
H352     H      0.219920000000     0.896550000000     0.717550000000     0.0276482  
H353     H      0.179890000000     0.830710000000     0.602880000000     0.0373096  
H354     H      0.177380000000     0.832410000000     0.539660000000     0.0372768  
H355     H      0.245280000000     0.900120000000     0.538230000000     0.0368286  
H356     H      0.247780000000     0.898430000000     0.601890000000     0.0367495  
H357     H      0.172180000000     0.860150000000     0.496370000000     0.0476961  
H358     H      0.167480000000     0.857680000000     0.433310000000     0.0279331  
H359     H      0.241040000000     0.871710000000     0.422330000000     0.027797   
H360     H      0.245660000000     0.874290000000     0.485690000000     0.0478157  
H361     H      0.195200000000     0.813270000000     0.928280000000     0.0271952  
H362     H      0.190570000000     0.810060000000     0.991140000000     0.0469261  
H363     H      0.159350000000     0.856870000000     0.988610000000     0.0467573  
H364     H      0.165220000000     0.861040000000     0.925800000000     0.0268313  
H365     H      0.164310000000     0.794830000000     0.038670000000     0.0357752  
H366     H      0.164720000000     0.794620000000     0.102230000000     0.0367033  
H367     H      0.181080000000     0.869110000000     0.103240000000     0.0373676  
H368     H      0.181880000000     0.869900000000     0.039930000000     0.0364052  
H369     H      0.198670000000     0.817990000000     0.148970000000     0.0478871  
H370     H      0.203140000000     0.821640000000     0.212290000000     0.0272464  
H371     H      0.153920000000     0.849970000000     0.215780000000     0.027294   
H372     H      0.149760000000     0.846540000000     0.152560000000     0.0474748  
H373     H      0.269600000000     0.919570000000     0.851460000000     0.0285456  
H374     H      0.310840000000     0.940440000000     0.874240000000     0.0475672  
H375     H      0.311870000000     0.873050000000     0.873240000000     0.0471497  
H376     H      0.270470000000     0.852030000000     0.850950000000     0.02818    
H377     H      0.352620000000     0.952800000000     0.857590000000     0.0367557  
H378     H      0.393400000000     0.973560000000     0.882260000000     0.0367976  
H379     H      0.373510000000     0.913360000000     0.952390000000     0.0364513  
H380     H      0.332790000000     0.892570000000     0.927570000000     0.0366557  
H381     H      0.415040000000     0.993350000000     0.935220000000     0.0472514  
H382     H      0.456490000000     0.014140000000     0.957310000000     0.0286878  
H383     H      0.456080000000     0.945970000000     0.959660000000     0.0284129  
H384     H      0.414870000000     0.925340000000     0.936880000000     0.0470485  
H385     H      0.841000000000     0.709540000000     0.757800000000     0.0279429  
H386     H      0.838450000000     0.710490000000     0.821190000000     0.0479865  
H387     H      0.852740000000     0.651050000000     0.828970000000     0.0481512  
H388     H      0.855280000000     0.649970000000     0.765750000000     0.0282138  
H389     H      0.813210000000     0.684490000000     0.872980000000     0.0367547  
H390     H      0.815260000000     0.688390000000     0.936600000000     0.0367846  
H391     H      0.882090000000     0.686300000000     0.936490000000     0.0377249  
H392     H      0.880100000000     0.682500000000     0.873240000000     0.0376664  
H393     H      0.812950000000     0.661560000000     0.988220000000     0.0477453  
H394     H      0.816330000000     0.662010000000     0.051600000000     0.0278729  
H395     H      0.891360000000     0.718800000000     0.044210000000     0.0284638  
H396     H      0.887860000000     0.718230000000     0.980970000000     0.0483028  
H397     H      0.885400000000     0.658930000000     0.551820000000     0.0280678  
H398     H      0.888200000000     0.658120000000     0.488450000000     0.0481021  
H399     H      0.873750000000     0.717460000000     0.480600000000     0.0481216  
H400     H      0.870970000000     0.718390000000     0.543800000000     0.0282401  
H401     H      0.913650000000     0.684350000000     0.436880000000     0.0372413  
H402     H      0.911870000000     0.680590000000     0.373240000000     0.0372155  
H403     H      0.844880000000     0.682380000000     0.372830000000     0.0374825  
H404     H      0.846610000000     0.686040000000     0.436100000000     0.037437   
H405     H      0.914200000000     0.707480000000     0.321550000000     0.0482965  
H406     H      0.910970000000     0.707070000000     0.258140000000     0.0282812  
H407     H      0.836060000000     0.649940000000     0.265180000000     0.0281673  
H408     H      0.839410000000     0.650480000000     0.328410000000     0.0480689  
H409     H      0.600890000000     0.587300000000     0.523420000000     0.0285907  
H410     H      0.642180000000     0.608670000000     0.546310000000     0.0474866  
H411     H      0.645540000000     0.542600000000     0.540340000000     0.0471589  
H412     H      0.604240000000     0.521140000000     0.517930000000     0.0282769  
H413     H      0.684460000000     0.622530000000     0.529000000000     0.0367929  
H414     H      0.725450000000     0.643130000000     0.552970000000     0.0366451  
H415     H      0.706730000000     0.581550000000     0.619780000000     0.0364735  
H416     H      0.665850000000     0.560930000000     0.595580000000     0.0366213  
H417     H      0.747950000000     0.661920000000     0.605610000000     0.0471922  
H418     H      0.789660000000     0.682340000000     0.626630000000     0.0283592  
H419     H      0.789290000000     0.614190000000     0.624630000000     0.0286129  
H420     H      0.747820000000     0.593940000000     0.602860000000     0.0471508  
H421     H      0.937210000000     0.754230000000     0.684280000000     0.0286667  
H422     H      0.978600000000     0.774300000000     0.706490000000     0.0493361  
H423     H      0.977720000000     0.705940000000     0.705450000000     0.0490152  
H424     H      0.936160000000     0.685730000000     0.683940000000     0.0284709  
H425     H      0.019840000000     0.786050000000     0.690160000000     0.0345863  
H426     H      0.060690000000     0.806160000000     0.714520000000     0.0362669  
H427     H      0.040600000000     0.745010000000     0.782760000000     0.0351703  
H428     H      0.999700000000     0.724920000000     0.758530000000     0.0415485  
H429     H      0.081720000000     0.824920000000     0.768910000000     0.0467446  
H430     H      0.123090000000     0.845520000000     0.791170000000     0.0282108  
H431     H      0.123650000000     0.777840000000     0.788760000000     0.0281357  
H432     H      0.082360000000     0.757350000000     0.765950000000     0.0469716  
O1       O      0.870720000000     0.669020000000     0.608080000000    -0.547664   
O2       O      0.854640000000     0.663780000000     0.703960000000    -0.547766   
O3       O      0.829200000000     0.650110000000     0.644080000000    -0.546386   
O4       O      0.896050000000     0.682640000000     0.667900000000    -0.547335   
O5       O      0.897020000000     0.718230000000     0.665480000000    -0.546021   
O6       O      0.830130000000     0.685690000000     0.641680000000    -0.54669    
O7       O      0.855490000000     0.699330000000     0.701480000000    -0.547513   
O8       O      0.871560000000     0.704560000000     0.605600000000    -0.547773   
O9       O      0.204970000000     0.871750000000     0.774090000000    -0.546363   
O10      O      0.187520000000     0.860130000000     0.869610000000    -0.54597    
O11      O      0.229540000000     0.882830000000     0.834630000000    -0.54702    
O12      O      0.163030000000     0.849140000000     0.809080000000    -0.547277   
O13      O      0.163720000000     0.814360000000     0.807120000000    -0.545718   
O14      O      0.230520000000     0.848230000000     0.831610000000    -0.54638    
O15      O      0.188930000000     0.825710000000     0.867220000000    -0.547769   
O16      O      0.205350000000     0.836830000000     0.771500000000    -0.548172   
O17      O      0.537880000000     0.001000000000     0.943380000000    -0.545999   
O18      O      0.520310000000     0.996260000000     0.038710000000    -0.546003   
O19      O      0.495890000000     0.982220000000     0.978180000000    -0.546712   
O20      O      0.562380000000     0.015080000000     0.003910000000    -0.546721   
O21      O      0.563420000000     0.050640000000     0.999620000000    -0.54684    
O22      O      0.496670000000     0.017710000000     0.975060000000    -0.545773   
O23      O      0.521830000000     0.032100000000     0.035180000000    -0.546464   
O24      O      0.538320000000     0.036300000000     0.939500000000    -0.546733   
O25      O      0.186750000000     0.326580000000     0.372650000000    -0.545624   
O26      O      0.203530000000     0.330640000000     0.277030000000    -0.545542   
O27      O      0.228580000000     0.344520000000     0.337330000000    -0.545319   
O28      O      0.161940000000     0.312800000000     0.312410000000    -0.547442   
O29      O      0.163670000000     0.348710000000     0.308640000000    -0.545945   
O30      O      0.230290000000     0.380430000000     0.333660000000    -0.547672   
O31      O      0.205510000000     0.366690000000     0.273420000000    -0.546191   
O32      O      0.188660000000     0.362590000000     0.368950000000    -0.546422   
O33      O      0.871010000000     0.205840000000     0.109340000000    -0.546226   
O34      O      0.854450000000     0.194260000000     0.205110000000    -0.546615   
O35      O      0.896070000000     0.216750000000     0.169390000000    -0.547016   
O36      O      0.829320000000     0.183340000000     0.144990000000    -0.546361   
O37      O      0.829900000000     0.148530000000     0.142050000000    -0.54708    
O38      O      0.896670000000     0.181950000000     0.166440000000    -0.546414   
O39      O      0.854970000000     0.159420000000     0.202040000000    -0.54807    
O40      O      0.871480000000     0.170970000000     0.106370000000    -0.54793    
O41      O      0.536100000000     0.539220000000     0.444800000000    -0.54603    
O42      O      0.519610000000     0.525010000000     0.540260000000    -0.545712   
O43      O      0.561300000000     0.550000000000     0.504980000000    -0.545017   
O44      O      0.494650000000     0.514310000000     0.480130000000    -0.546901   
O45      O      0.497280000000     0.480680000000     0.475110000000    -0.546251   
O46      O      0.563850000000     0.516320000000     0.500090000000    -0.547824   
O47      O      0.522340000000     0.491420000000     0.535310000000    -0.546582   
O48      O      0.538990000000     0.505710000000     0.439930000000    -0.546367   
O49      O      0.184480000000     0.328410000000     0.873790000000    -0.545676   
O50      O      0.169040000000     0.328980000000     0.778390000000    -0.546356   
O51      O      0.194990000000     0.313680000000     0.813960000000    -0.547653   
O52      O      0.158410000000     0.343820000000     0.838230000000    -0.545813   
O53      O      0.191530000000     0.380270000000     0.832000000000    -0.547167   
O54      O      0.228120000000     0.350120000000     0.807710000000    -0.545241   
O55      O      0.202060000000     0.365530000000     0.772180000000    -0.545757   
O56      O      0.217510000000     0.364960000000     0.867560000000    -0.546212   
O57      O      0.379010000000     0.190440000000     0.705660000000    -0.545846   
O58      O      0.378580000000     0.205780000000     0.610190000000    -0.546194   
O59      O      0.363470000000     0.216290000000     0.669850000000    -0.545241   
O60      O      0.394030000000     0.180030000000     0.646000000000    -0.547274   
O61      O      0.357700000000     0.146760000000     0.639640000000    -0.545414   
O62      O      0.327140000000     0.183020000000     0.663470000000    -0.547427   
O63      O      0.342150000000     0.172620000000     0.603840000000    -0.545592   
O64      O      0.342580000000     0.157280000000     0.699320000000    -0.546149   
O65      O      0.040680000000     0.519430000000     0.036530000000    -0.544957   
O66      O      0.038350000000     0.533650000000     0.941000000000    -0.545876   
O67      O      0.023540000000     0.543940000000     0.000920000000    -0.543495   
O68      O      0.055510000000     0.509160000000     0.976580000000    -0.547157   
O69      O      0.019670000000     0.475080000000     0.971880000000    -0.544635   
O70      O      0.987620000000     0.510060000000     0.995190000000    -0.535462   
O71      O      0.002670000000     0.499450000000     0.935640000000    -0.546718   
O72      O      0.004530000000     0.485730000000     0.031400000000    -0.546059   
O73      O      0.714550000000     0.876990000000     0.276590000000    -0.547695   
O74      O      0.720220000000     0.865630000000     0.372170000000    -0.547729   
O75      O      0.734610000000     0.855110000000     0.311890000000    -0.545721   
O76      O      0.700170000000     0.887420000000     0.336780000000    -0.546234   
O77      O      0.665240000000     0.852220000000     0.333940000000    -0.546874   
O78      O      0.699630000000     0.819960000000     0.309040000000    -0.548062   
O79      O      0.685330000000     0.830380000000     0.369290000000    -0.546856   
O80      O      0.679630000000     0.841790000000     0.273630000000    -0.546835   
O81      O      0.840800000000     0.670610000000     0.107940000000    -0.547842   
O82      O      0.850930000000     0.663850000000     0.203650000000    -0.548067   
O83      O      0.830290000000     0.684950000000     0.168050000000    -0.547753   
O84      O      0.861510000000     0.649460000000     0.143450000000    -0.54638    
O85      O      0.897160000000     0.683970000000     0.141490000000    -0.547016   
O86      O      0.865920000000     0.719470000000     0.166040000000    -0.545815   
O87      O      0.886620000000     0.698320000000     0.201610000000    -0.547382   
O88      O      0.876510000000     0.705070000000     0.105860000000    -0.547409   
O89      O      0.501540000000     0.995490000000     0.444030000000    -0.546922   
O90      O      0.515300000000     0.993550000000     0.539740000000    -0.54716    
O91      O      0.490690000000     0.010320000000     0.503650000000    -0.545301   
O92      O      0.526130000000     0.978800000000     0.480090000000    -0.546173   
O93      O      0.559850000000     0.014860000000     0.474530000000    -0.546399   
O94      O      0.524590000000     0.046320000000     0.499050000000    -0.547065   
O95      O      0.549320000000     0.029400000000     0.534530000000    -0.545808   
O96      O      0.535080000000     0.031770000000     0.439020000000    -0.545592   
O97      O      0.375890000000     0.176020000000     0.108850000000    -0.546344   
O98      O      0.380190000000     0.193100000000     0.204310000000    -0.546046   
O99      O      0.361930000000     0.151160000000     0.169270000000    -0.545617   
O100     O      0.394000000000     0.217750000000     0.143950000000    -0.547543   
O101     O      0.358200000000     0.216270000000     0.140290000000    -0.545624   
O102     O      0.326140000000     0.149690000000     0.165510000000    -0.547434   
O103     O      0.344250000000     0.191370000000     0.200700000000    -0.545628   
O104     O      0.339990000000     0.174350000000     0.105150000000    -0.545522   
O105     O      0.519240000000     0.526900000000     0.040190000000    -0.54455    
O106     O      0.505290000000     0.510650000000     0.944500000000    -0.54459    
O107     O      0.494490000000     0.485340000000     0.004530000000    -0.545839   
O108     O      0.529900000000     0.552030000000     0.980170000000    -0.547551   
O109     O      0.563660000000     0.549660000000     0.975000000000    -0.545441   
O110     O      0.528290000000     0.482990000000     0.999890000000    -0.547345   
O111     O      0.538890000000     0.507890000000     0.939840000000    -0.547386   
O112     O      0.553010000000     0.524500000000     0.035150000000    -0.547615   
O113     O      0.180890000000     0.858810000000     0.371020000000    -0.548353   
O114     O      0.168190000000     0.843800000000     0.275110000000    -0.54862    
O115     O      0.157000000000     0.817750000000     0.334410000000    -0.546252   
O116     O      0.192130000000     0.884810000000     0.311690000000    -0.546916   
O117     O      0.226110000000     0.882810000000     0.306770000000    -0.546721   
O118     O      0.191150000000     0.815990000000     0.330450000000    -0.547452   
O119     O      0.201990000000     0.841400000000     0.270690000000    -0.545781   
O120     O      0.215200000000     0.857360000000     0.366500000000    -0.545575   
O121     O      0.040610000000     0.509120000000     0.440190000000    -0.547555   
O122     O      0.044870000000     0.525700000000     0.535820000000    -0.547103   
O123     O      0.026600000000     0.484030000000     0.500380000000    -0.542777   
O124     O      0.058810000000     0.550740000000     0.475610000000    -0.546533   
O125     O      0.023040000000     0.549270000000     0.471580000000    -0.545651   
O126     O      0.990890000000     0.482790000000     0.497370000000    -0.536446   
O127     O      0.009320000000     0.524750000000     0.532170000000    -0.545666   
O128     O      0.004590000000     0.507200000000     0.436780000000    -0.546442   
O129     O      0.837810000000     0.175750000000     0.609500000000    -0.547841   
O130     O      0.849300000000     0.192590000000     0.705080000000    -0.547923   
O131     O      0.860110000000     0.217580000000     0.644820000000    -0.546004   
O132     O      0.827090000000     0.150880000000     0.669680000000    -0.546621   
O133     O      0.862040000000     0.150560000000     0.666850000000    -0.545972   
O134     O      0.895040000000     0.217230000000     0.642000000000    -0.54681    
O135     O      0.884300000000     0.192380000000     0.702240000000    -0.546368   
O136     O      0.872790000000     0.175500000000     0.606560000000    -0.546465   
O137     O      0.717070000000     0.859400000000     0.872280000000    -0.546278   
O138     O      0.712340000000     0.842900000000     0.776490000000    -0.54621    
O139     O      0.731110000000     0.884560000000     0.812170000000    -0.545803   
O140     O      0.698380000000     0.817800000000     0.836540000000    -0.546737   
O141     O      0.662820000000     0.816880000000     0.833450000000    -0.546497   
O142     O      0.695560000000     0.883640000000     0.808970000000    -0.546839   
O143     O      0.676830000000     0.842060000000     0.773360000000    -0.548145   
O144     O      0.681570000000     0.858590000000     0.868990000000    -0.547989   
V1       V      0.862600000000     0.664960000000     0.656110000000     1.38948    
V2       V      0.863600000000     0.703390000000     0.653450000000     1.38782    
V3       V      0.196240000000     0.867360000000     0.821960000000     1.38652    
V4       V      0.197170000000     0.829900000000     0.819260000000     1.38768    
V5       V      0.529090000000     0.997220000000     0.991200000000     1.38611    
V6       V      0.530100000000     0.035610000000     0.987180000000     1.38658    
V7       V      0.195150000000     0.327210000000     0.325020000000     1.38445    
V8       V      0.197090000000     0.366030000000     0.321010000000     1.38709    
V9       V      0.862680000000     0.201440000000     0.157340000000     1.38652    
V10      V      0.863300000000     0.163840000000     0.154110000000     1.38984    
V11      V      0.527830000000     0.533500000000     0.492750000000     1.38441    
V12      V      0.530700000000     0.497180000000     0.487400000000     1.38841    
V13      V      0.175390000000     0.327270000000     0.826360000000     1.38563    
V14      V      0.211140000000     0.366680000000     0.819610000000     1.38569    
V15      V      0.380220000000     0.199470000000     0.658190000000     1.38591    
V16      V      0.340950000000     0.163580000000     0.651310000000     1.38548    
V17      V      0.040960000000     0.527900000000     0.988970000000     1.3866     
V18      V      0.002190000000     0.491210000000     0.983300000000     1.37666    
V19      V      0.718800000000     0.872690000000     0.324480000000     1.38735    
V20      V      0.681060000000     0.834680000000     0.321360000000     1.38835    
V21      V      0.844460000000     0.665830000000     0.155860000000     1.38957    
V22      V      0.882980000000     0.703090000000     0.153670000000     1.38845    
V23      V      0.507060000000     0.993100000000     0.492100000000     1.38577    
V24      V      0.543560000000     0.032030000000     0.486570000000     1.38609    
V25      V      0.379430000000     0.184550000000     0.156750000000     1.38681    
V26      V      0.340720000000     0.182880000000     0.152750000000     1.38545    
V27      V      0.510870000000     0.518820000000     0.992560000000     1.38351    
V28      V      0.547330000000     0.516190000000     0.987270000000     1.38877    
V29      V      0.173190000000     0.851370000000     0.323240000000     1.38898    
V30      V      0.209980000000     0.849310000000     0.318410000000     1.38602    
V31      V      0.044160000000     0.517450000000     0.488150000000     1.38735    
V32      V      0.005530000000     0.515960000000     0.484320000000     1.37702    
V33      V      0.842190000000     0.184230000000     0.657380000000     1.38836    
V34      V      0.879940000000     0.183900000000     0.654290000000     1.38697    
V35      V      0.716150000000     0.851200000000     0.824510000000     1.38541    
V36      V      0.677760000000     0.850230000000     0.821070000000     1.38935    


