data_structure

_audit_creation_method RASPA-1.0
_audit_creation_date 2023-5-22
_audit_author_name 'Poobodin Mano'

_cell_length_a    30.7541
_cell_length_b    30.4105
_cell_length_c    28.0327
_cell_angle_alpha 89.9992
_cell_angle_beta  90.0018
_cell_angle_gamma 89.9971
_cell_volume      26217.5

_symmetry_cell_setting          triclinic
_symmetry_space_group_name_Hall 'P 1'
_symmetry_space_group_name_H-M  'P 1'
_symmetry_Int_Tables_number     1

_symmetry_equiv_pos_as_xyz 'x,y,z'

loop_
_atom_site_label
_atom_site_type_symbol
_atom_site_fract_x
_atom_site_fract_y
_atom_site_fract_z
_atom_site_charge
C1       C      0.542750000000     0.304850000000     0.074910000000     0.476276   
C2       C      0.429760000000     0.299290000000     0.944220000000     0.475377   
C3       C      0.545740000000     0.306880000000     0.949450000000     0.472216   
C4       C      0.426300000000     0.298360000000     0.073730000000     0.47207    
C5       C      0.184550000000     0.644370000000     0.924180000000     0.4735     
C6       C      0.190720000000     0.522100000000     0.046750000000     0.472285   
C7       C      0.187280000000     0.639070000000     0.053820000000     0.472016   
C8       C      0.186870000000     0.528650000000     0.918330000000     0.473108   
C9       C      0.435770000000     0.883890000000     0.946610000000     0.473619   
C10      C      0.542910000000     0.886120000000     0.083710000000     0.475088   
C11      C      0.428590000000     0.891060000000     0.075170000000     0.475238   
C12      C      0.552250000000     0.877100000000     0.956980000000     0.472716   
C13      C      0.775270000000     0.530250000000     0.089040000000     0.474214   
C14      C      0.771980000000     0.646590000000     0.959810000000     0.472458   
C15      C      0.768660000000     0.528650000000     0.960510000000     0.473502   
C16      C      0.778970000000     0.645380000000     0.088700000000     0.474891   
C17      C      0.257020000000     0.138220000000     0.428770000000     0.471577   
C18      C      0.258610000000     0.026350000000     0.562960000000     0.472129   
C19      C      0.260800000000     0.143050000000     0.558060000000     0.472541   
C20      C      0.253680000000     0.021300000000     0.434870000000     0.47255    
C21      C      0.940520000000     0.815630000000     0.437460000000     0.473805   
C22      C      0.047850000000     0.819010000000     0.574390000000     0.473414   
C23      C      0.933190000000     0.815590000000     0.566590000000     0.470878   
C24      C      0.055480000000     0.819400000000     0.445200000000     0.471376   
C25      C      0.724000000000     0.025910000000     0.583250000000     0.476275   
C26      C      0.721220000000     0.145960000000     0.458710000000     0.477708   
C27      C      0.722190000000     0.028260000000     0.455870000000     0.475559   
C28      C      0.722960000000     0.144600000000     0.584770000000     0.475474   
C29      C      0.039100000000     0.355660000000     0.577500000000     0.474618   
C30      C      0.934760000000     0.357980000000     0.437850000000     0.474427   
C31      C      0.049250000000     0.355520000000     0.449440000000     0.473366   
C32      C      0.923720000000     0.357020000000     0.566600000000     0.472377   
C33      C      0.238620000000     0.273450000000     0.300030000000     0.470895   
C34      C      0.202750000000     0.401280000000     0.190740000000     0.472312   
C35      C      0.157650000000     0.355190000000     0.298160000000     0.473181   
C36      C      0.285550000000     0.319720000000     0.190620000000     0.470694   
C37      C      0.667070000000     0.309960000000     0.211800000000     0.47726    
C38      C      0.799770000000     0.340690000000     0.313010000000     0.474497   
C39      C      0.750560000000     0.391070000000     0.208110000000     0.474387   
C40      C      0.716510000000     0.260280000000     0.313170000000     0.47756    
C41      C      0.809030000000     0.357840000000     0.714180000000     0.472695   
C42      C      0.679270000000     0.324920000000     0.819860000000     0.472828   
C43      C      0.728120000000     0.273530000000     0.719410000000     0.475082   
C44      C      0.760740000000     0.409930000000     0.816630000000     0.474247   
C45      C      0.804200000000     0.838000000000     0.316790000000     0.474169   
C46      C      0.680950000000     0.864410000000     0.200650000000     0.475448   
C47      C      0.721760000000     0.918930000000     0.306340000000     0.475867   
C48      C      0.761950000000     0.784390000000     0.209760000000     0.47427    
C49      C      0.728620000000     0.904730000000     0.723530000000     0.475266   
C50      C      0.764890000000     0.766880000000     0.816820000000     0.4732     
C51      C      0.808220000000     0.820660000000     0.711730000000     0.471317   
C52      C      0.684620000000     0.852770000000     0.826240000000     0.472411   
C53      C      0.161420000000     0.820760000000     0.290550000000     0.472283   
C54      C      0.286410000000     0.858600000000     0.179970000000     0.473153   
C55      C      0.242550000000     0.904080000000     0.288460000000     0.473297   
C56      C      0.206760000000     0.775450000000     0.180330000000     0.470903   
C57      C      0.298710000000     0.866060000000     0.825080000000     0.473196   
C58      C      0.178850000000     0.840970000000     0.704200000000     0.473293   
C59      C      0.215760000000     0.787320000000     0.813220000000     0.471836   
C60      C      0.261370000000     0.920370000000     0.716340000000     0.473146   
C61      C      0.177120000000     0.332300000000     0.694370000000     0.474832   
C62      C      0.297340000000     0.310340000000     0.815190000000     0.474738   
C63      C      0.261100000000     0.253880000000     0.707630000000     0.47352    
C64      C      0.214610000000     0.388010000000     0.802080000000     0.472318   
C65      C      0.097340000000     0.391560000000     0.624410000000    -0.00840211 
C66      C      0.068010000000     0.317850000000     0.648740000000    -0.00657935 
C67      C      0.143930000000     0.373650000000     0.627630000000    -0.00794567 
C68      C      0.114100000000     0.299980000000     0.653020000000    -0.00747139 
C69      C      0.113520000000     0.390140000000     0.411080000000    -0.00848035 
C70      C      0.086640000000     0.315500000000     0.385060000000    -0.00739693 
C71      C      0.121010000000     0.402380000000     0.358530000000    -0.00770373 
C72      C      0.088380000000     0.330500000000     0.333170000000    -0.0083414  
C73      C      0.834880000000     0.381680000000     0.378220000000    -0.00739084 
C74      C      0.863880000000     0.307840000000     0.350880000000    -0.00842808 
C75      C      0.881570000000     0.397000000000     0.387020000000    -0.00791643 
C76      C      0.909830000000     0.323040000000     0.363140000000    -0.00683106 
C77      C      0.858610000000     0.392130000000     0.602300000000    -0.00860797 
C78      C      0.884810000000     0.317860000000     0.630490000000    -0.00732457 
C79      C      0.847080000000     0.404070000000     0.654090000000    -0.00796922 
C80      C      0.879410000000     0.332810000000     0.682110000000    -0.00822454 
C81      C      0.748280000000     0.197840000000     0.697210000000    -0.00781917 
C82      C      0.679860000000     0.231430000000     0.665080000000    -0.00764158 
C83      C      0.762270000000     0.184830000000     0.647100000000    -0.00648463 
C84      C      0.690250000000     0.212820000000     0.615520000000    -0.00849847 
C85      C      0.686930000000     0.212610000000     0.425170000000    -0.0078133  
C86      C      0.757020000000     0.182190000000     0.391180000000    -0.00640925 
C87      C      0.671360000000     0.222800000000     0.374420000000    -0.00715456 
C88      C      0.738180000000     0.186850000000     0.341230000000    -0.00798508 
C89      C      0.759670000000     0.994710000000     0.387450000000    -0.00686329 
C90      C      0.687450000000     0.964660000000     0.416200000000    -0.00821469 
C91      C      0.743070000000     0.992020000000     0.336220000000    -0.00850247 
C92      C      0.673820000000     0.957560000000     0.364160000000    -0.00706676 
C93      C      0.690620000000     0.959560000000     0.618470000000    -0.00819009 
C94      C      0.764040000000     0.987120000000     0.646390000000    -0.00672616 
C95      C      0.679600000000     0.946930000000     0.669990000000    -0.00738313 
C96      C      0.750070000000     0.979150000000     0.697830000000    -0.00819257 
C97      C      0.091120000000     0.859930000000     0.379830000000    -0.00764625 
C98      C      0.119380000000     0.785670000000     0.405170000000    -0.00862952 
C99      C      0.092860000000     0.845240000000     0.327760000000    -0.00847162 
C100     C      0.126710000000     0.773720000000     0.352460000000    -0.0080037  
C101     C      0.116920000000     0.873020000000     0.660930000000    -0.00819655 
C102     C      0.149820000000     0.800970000000     0.634450000000    -0.0076935  
C103     C      0.071840000000     0.855610000000     0.648400000000    -0.00710104 
C104     C      0.104140000000     0.783220000000     0.624100000000    -0.00809292 
C105     C      0.893580000000     0.855510000000     0.629220000000    -0.00804884 
C106     C      0.879410000000     0.774260000000     0.614460000000    -0.00866278 
C107     C      0.879140000000     0.844150000000     0.679980000000    -0.0087601  
C108     C      0.835640000000     0.783900000000     0.639120000000    -0.00853981 
C109     C      0.868530000000     0.869060000000     0.356460000000    -0.00774632 
C110     C      0.836570000000     0.796940000000     0.384280000000    -0.00800803 
C111     C      0.914030000000     0.850530000000     0.363610000000    -0.00632295 
C112     C      0.882770000000     0.778600000000     0.390750000000    -0.00822772 
C113     C      0.294210000000     0.193920000000     0.378750000000    -0.0082415  
C114     C      0.220620000000     0.165170000000     0.356110000000    -0.00738264 
C115     C      0.279310000000     0.241000000000     0.367490000000    -0.00794432 
C116     C      0.205920000000     0.211500000000     0.342960000000    -0.00830054 
C117     C      0.309790000000     0.216040000000     0.649440000000    -0.00776532 
C118     C      0.241300000000     0.180420000000     0.677680000000    -0.00853399 
C119     C      0.297090000000     0.206300000000     0.597340000000    -0.0089536  
C120     C      0.224560000000     0.177400000000     0.626640000000    -0.00672249 
C121     C      0.222460000000     0.994960000000     0.633620000000    -0.00720682 
C122     C      0.293560000000     0.963330000000     0.603780000000    -0.0087176  
C123     C      0.240190000000     0.993000000000     0.684510000000    -0.00881956 
C124     C      0.308250000000     0.956920000000     0.655680000000    -0.00756687 
C125     C      0.292820000000     0.941840000000     0.344530000000    -0.00791065 
C126     C      0.221810000000     0.976300000000     0.321210000000    -0.00813984 
C127     C      0.284800000000     0.954880000000     0.396770000000    -0.00875632 
C128     C      0.210540000000     0.983290000000     0.373590000000    -0.00706366 
C129     C      0.791550000000     0.424060000000     0.141220000000    -0.00796959 
C130     C      0.722680000000     0.459290000000     0.172630000000    -0.00815755 
C131     C      0.811110000000     0.469990000000     0.133670000000    -0.00800011 
C132     C      0.742590000000     0.504410000000     0.164200000000    -0.00619635 
C133     C      0.748290000000     0.671910000000     0.164370000000    -0.00605568 
C134     C      0.818910000000     0.702140000000     0.134650000000    -0.00790287 
C135     C      0.731380000000     0.717980000000     0.173770000000    -0.0078741  
C136     C      0.802870000000     0.749190000000     0.144150000000    -0.00802402 
C137     C      0.742530000000     0.693340000000     0.844930000000    -0.0083216  
C138     C      0.814490000000     0.724450000000     0.869510000000    -0.00748487 
C139     C      0.730770000000     0.684950000000     0.897080000000    -0.00725331 
C140     C      0.805630000000     0.711310000000     0.921460000000    -0.0087947  
C141     C      0.799770000000     0.462300000000     0.922960000000    -0.00829968 
C142     C      0.725970000000     0.490970000000     0.898230000000    -0.0075233  
C143     C      0.809610000000     0.451180000000     0.870840000000    -0.0070467  
C144     C      0.737920000000     0.482980000000     0.845950000000    -0.00836639 
C145     C      0.601620000000     0.923220000000     0.128830000000    -0.0084657  
C146     C      0.570990000000     0.851310000000     0.157020000000    -0.00632655 
C147     C      0.647900000000     0.904670000000     0.133040000000    -0.00780205 
C148     C      0.616630000000     0.832560000000     0.161610000000    -0.00734915 
C149     C      0.398930000000     0.859660000000     0.148750000000    -0.00430797 
C150     C      0.364300000000     0.926440000000     0.112820000000    -0.00868888 
C151     C      0.356340000000     0.834890000000     0.146280000000    -0.00710684 
C152     C      0.319520000000     0.903240000000     0.114790000000    -0.00932107 
C153     C      0.379850000000     0.921610000000     0.897880000000    -0.00839286 
C154     C      0.405010000000     0.845370000000     0.876910000000    -0.00692133 
C155     C      0.332300000000     0.907050000000     0.891910000000    -0.00787857 
C156     C      0.358010000000     0.831010000000     0.869890000000    -0.00745792 
C157     C      0.648110000000     0.905900000000     0.879830000000    -0.0088232  
C158     C      0.610350000000     0.836790000000     0.853070000000    -0.00730461 
C159     C      0.623290000000     0.903580000000     0.927610000000    -0.00910887 
C160     C      0.593770000000     0.829390000000     0.903370000000    -0.00671832 
C161     C      0.149990000000     0.694810000000     0.103820000000    -0.00825206 
C162     C      0.223600000000     0.666260000000     0.126460000000    -0.00717463 
C163     C      0.165070000000     0.742080000000     0.114040000000    -0.00824656 
C164     C      0.238780000000     0.712770000000     0.137910000000    -0.0083356  
C165     C      0.160030000000     0.454540000000     0.082830000000    -0.00893664 
C166     C      0.233590000000     0.483610000000     0.107770000000    -0.00706807 
C167     C      0.152440000000     0.438580000000     0.134290000000    -0.00835947 
C168     C      0.222170000000     0.474470000000     0.159660000000    -0.00802881 
C169     C      0.151160000000     0.469830000000     0.871090000000    -0.00832564 
C170     C      0.221930000000     0.502150000000     0.844660000000    -0.00637343 
C171     C      0.169570000000     0.423190000000     0.864520000000    -0.00828139 
C172     C      0.241070000000     0.456480000000     0.837920000000    -0.00814515 
C173     C      0.239620000000     0.716950000000     0.847030000000    -0.00798238 
C174     C      0.170040000000     0.752700000000     0.875870000000    -0.00887633 
C175     C      0.217860000000     0.672330000000     0.850550000000    -0.0054777  
C176     C      0.149540000000     0.706650000000     0.881420000000    -0.0082029  
C177     C      0.366820000000     0.260160000000     0.117400000000    -0.00843916 
C178     C      0.396460000000     0.332070000000     0.146450000000    -0.0064445  
C179     C      0.320040000000     0.277390000000     0.124820000000    -0.00885676 
C180     C      0.350720000000     0.350110000000     0.152290000000    -0.0078911  
C181     C      0.611230000000     0.273980000000     0.105680000000    -0.00795777 
C182     C      0.580790000000     0.345210000000     0.138280000000    -0.00663084 
C183     C      0.626870000000     0.261740000000     0.155740000000    -0.00737366 
C184     C      0.592370000000     0.330080000000     0.188490000000    -0.00782501 
C185     C      0.586090000000     0.351230000000     0.891500000000    -0.00671066 
C186     C      0.616510000000     0.279060000000     0.921430000000    -0.00909667 
C187     C      0.603500000000     0.340870000000     0.842040000000    -0.00767573 
C188     C      0.640630000000     0.273400000000     0.873700000000    -0.00842285 
C189     C      0.401930000000     0.333750000000     0.870920000000    -0.00679593 
C190     C      0.375590000000     0.258950000000     0.895860000000    -0.00786179 
C191     C      0.355570000000     0.347450000000     0.859340000000    -0.00749897 
C192     C      0.328590000000     0.272880000000     0.885470000000    -0.00755968 
H1       H      0.057770000000     0.329740000000     0.684530000000     0.0341347  
H2       H      0.088930000000     0.407150000000     0.659090000000     0.0358207  
H3       H      0.166070000000     0.400610000000     0.639020000000     0.0359545  
H4       H      0.045530000000     0.290880000000     0.638300000000     0.035675   
H5       H      0.115190000000     0.274770000000     0.681720000000     0.0362544  
H6       H      0.122390000000     0.283200000000     0.618970000000     0.0350904  
H7       H      0.095980000000     0.417180000000     0.596140000000     0.0367029  
H8       H      0.154130000000     0.362400000000     0.591570000000     0.036284   
H9       H      0.117660000000     0.298560000000     0.393970000000     0.0360056  
H10      H      0.145020000000     0.378560000000     0.425940000000     0.0345875  
H11      H      0.150460000000     0.423400000000     0.355420000000     0.0369791  
H12      H      0.059600000000     0.291500000000     0.389050000000     0.0358637  
H13      H      0.092860000000     0.301190000000     0.309970000000     0.0364065  
H14      H      0.056820000000     0.346210000000     0.323890000000     0.0355168  
H15      H      0.103940000000     0.419970000000     0.431450000000     0.037003   
H16      H      0.092760000000     0.422380000000     0.346610000000     0.0341201  
H17      H      0.851480000000     0.287820000000     0.381160000000     0.0345639  
H18      H      0.820810000000     0.370100000000     0.412540000000     0.0372389  
H19      H      0.881540000000     0.421880000000     0.416110000000     0.036614   
H20      H      0.865420000000     0.285840000000     0.319240000000     0.0368888  
H21      H      0.929440000000     0.294420000000     0.375270000000     0.0355781  
H22      H      0.925110000000     0.335720000000     0.329920000000     0.0327163  
H23      H      0.815280000000     0.410180000000     0.365620000000     0.0357006  
H24      H      0.893990000000     0.412840000000     0.353950000000     0.0356758  
H25      H      0.854860000000     0.300170000000     0.619230000000     0.0369168  
H26      H      0.828400000000     0.380480000000     0.584550000000     0.0344115  
H27      H      0.816900000000     0.424190000000     0.654640000000     0.0369713  
H28      H      0.912620000000     0.294520000000     0.628640000000     0.0355249  
H29      H      0.873720000000     0.303420000000     0.704880000000     0.036259   
H30      H      0.910040000000     0.348930000000     0.693930000000     0.0358485  
H31      H      0.869430000000     0.422170000000     0.583070000000     0.0369656  
H32      H      0.873760000000     0.424970000000     0.668310000000     0.0339051  
H33      H      0.657900000000     0.207790000000     0.683380000000     0.0334921  
H34      H      0.730240000000     0.169920000000     0.713510000000     0.035429   
H35      H      0.782750000000     0.154720000000     0.649370000000     0.0344183  
H36      H      0.661790000000     0.262910000000     0.661240000000     0.0370054  
H37      H      0.659640000000     0.201300000000     0.598500000000     0.0369781  
H38      H      0.703010000000     0.240140000000     0.593180000000     0.0339579  
H39      H      0.777900000000     0.204120000000     0.718920000000     0.0369407  
H40      H      0.782240000000     0.211750000000     0.631560000000     0.0368732  
H41      H      0.776540000000     0.211980000000     0.399640000000     0.0363154  
H42      H      0.701050000000     0.243250000000     0.440280000000     0.0343737  
H43      H      0.652000000000     0.253680000000     0.374410000000     0.0367708  
H44      H      0.778900000000     0.153050000000     0.391940000000     0.0345635  
H45      H      0.765380000000     0.190280000000     0.315380000000     0.0371014  
H46      H      0.719810000000     0.156410000000     0.332360000000     0.0353674  
H47      H      0.658610000000     0.203560000000     0.447780000000     0.0362974  
H48      H      0.649420000000     0.195690000000     0.363070000000     0.0340606  
H49      H      0.700030000000     0.932880000000     0.430120000000     0.035061   
H50      H      0.778500000000     0.964400000000     0.395630000000     0.0363447  
H51      H      0.771280000000     0.988530000000     0.311720000000     0.036942   
H52      H      0.658380000000     0.973400000000     0.437800000000     0.0368787  
H53      H      0.652980000000     0.927800000000     0.361380000000     0.0367418  
H54      H      0.653860000000     0.986300000000     0.353110000000     0.0339257  
H55      H      0.781880000000     0.023450000000     0.390520000000     0.0348906  
H56      H      0.725970000000     0.023230000000     0.327490000000     0.0348175  
H57      H      0.782540000000     0.958010000000     0.633530000000     0.036538   
H58      H      0.702510000000     0.929550000000     0.599950000000     0.0346225  
H59      H      0.659250000000     0.916730000000     0.670210000000     0.0369929  
H60      H      0.785960000000     0.016220000000     0.645450000000     0.0351909  
H61      H      0.779530000000     0.973320000000     0.719920000000     0.0370539  
H62      H      0.733500000000     0.009200000000     0.711320000000     0.0350336  
H63      H      0.660480000000     0.970260000000     0.599890000000     0.0370874  
H64      H      0.659810000000     0.973960000000     0.685550000000     0.0338419  
H65      H      0.150820000000     0.797630000000     0.419810000000     0.0345658  
H66      H      0.121850000000     0.877450000000     0.388630000000     0.0363366  
H67      H      0.096940000000     0.874760000000     0.304780000000     0.0364234  
H68      H      0.110430000000     0.755590000000     0.425460000000     0.0370793  
H69      H      0.156490000000     0.753240000000     0.349060000000     0.0371552  
H70      H      0.098750000000     0.753210000000     0.340740000000     0.0342935  
H71      H      0.063630000000     0.883350000000     0.384200000000     0.0356092  
H72      H      0.061430000000     0.829290000000     0.318490000000     0.0356563  
H73      H      0.163870000000     0.813970000000     0.600720000000     0.0366673  
H74      H      0.128980000000     0.892620000000     0.630160000000     0.034545   
H75      H      0.051010000000     0.883300000000     0.636190000000     0.0359824  
H76      H      0.170680000000     0.773380000000     0.646950000000     0.036152   
H77      H      0.106090000000     0.759100000000     0.594340000000     0.0364166  
H78      H      0.092070000000     0.765850000000     0.656400000000     0.0359927  
H79      H      0.114150000000     0.895770000000     0.691820000000     0.0366927  
H80      H      0.057000000000     0.842210000000     0.681520000000     0.0335139  
H81      H      0.873590000000     0.753670000000     0.582270000000     0.0345799  
H82      H      0.867500000000     0.874650000000     0.611210000000     0.0379412  
H83      H      0.872690000000     0.875310000000     0.699550000000     0.0356433  
H84      H      0.900320000000     0.754890000000     0.639070000000     0.0375656  
H85      H      0.812630000000     0.797810000000     0.612500000000     0.038438   
H86      H      0.821290000000     0.752580000000     0.652260000000     0.0342559  
H87      H      0.922930000000     0.876840000000     0.631200000000     0.0343813  
H88      H      0.906020000000     0.826790000000     0.698660000000     0.0366552  
H89      H      0.824910000000     0.809500000000     0.419280000000     0.0366243  
H90      H      0.859510000000     0.887790000000     0.389060000000     0.0352643  
H91      H      0.936740000000     0.877540000000     0.373350000000     0.0352802  
H92      H      0.814630000000     0.769810000000     0.372910000000     0.0360143  
H93      H      0.882780000000     0.754490000000     0.420600000000     0.0359752  
H94      H      0.892290000000     0.761170000000     0.357480000000     0.035793   
H95      H      0.869050000000     0.892780000000     0.326270000000     0.0365781  
H96      H      0.925180000000     0.836700000000     0.328980000000     0.0337758  
H97      H      0.232440000000     0.148820000000     0.323070000000     0.03353    
H98      H      0.310450000000     0.180140000000     0.346620000000     0.0362698  
H99      H      0.307490000000     0.260130000000     0.353720000000     0.035418   
H100     H      0.192210000000     0.146020000000     0.369170000000     0.0359449  
H101     H      0.182930000000     0.209430000000     0.312430000000     0.036672   
H102     H      0.187510000000     0.225240000000     0.373690000000     0.03418    
H103     H      0.318350000000     0.194980000000     0.408280000000     0.0360879  
H104     H      0.268080000000     0.256770000000     0.401090000000     0.0369382  
H105     H      0.259110000000     0.149590000000     0.686350000000     0.0352157  
H106     H      0.330920000000     0.188690000000     0.661920000000     0.0335873  
H107     H      0.326450000000     0.195990000000     0.577080000000     0.0369773  
H108     H      0.213120000000     0.183240000000     0.702320000000     0.0371647  
H109     H      0.202080000000     0.148820000000     0.624130000000     0.0350053  
H110     H      0.205920000000     0.207760000000     0.618130000000     0.0368944  
H111     H      0.329370000000     0.246730000000     0.651060000000     0.0371656  
H112     H      0.285450000000     0.237520000000     0.581110000000     0.0346777  
H113     H      0.280320000000     0.931460000000     0.590860000000     0.0349485  
H114     H      0.203000000000     0.964800000000     0.626680000000     0.0362831  
H115     H      0.212480000000     0.990560000000     0.709810000000     0.0372593  
H116     H      0.322280000000     0.971240000000     0.581280000000     0.0371718  
H117     H      0.328660000000     0.926860000000     0.658500000000     0.0370824  
H118     H      0.328970000000     0.985480000000     0.665530000000     0.0340455  
H119     H      0.200610000000     0.023980000000     0.630440000000     0.0347902  
H120     H      0.257910000000     0.024140000000     0.692010000000     0.0349357  
H121     H      0.237970000000     0.006440000000     0.307400000000     0.0356261  
H122     H      0.313280000000     0.967860000000     0.328010000000     0.0337897  
H123     H      0.316020000000     0.965330000000     0.413250000000     0.0371244  
H124     H      0.191170000000     0.971150000000     0.300890000000     0.0363337  
H125     H      0.188640000000     0.012300000000     0.376390000000     0.0355172  
H126     H      0.192710000000     0.953940000000     0.386930000000     0.0365     
H127     H      0.311740000000     0.910710000000     0.343250000000     0.0370805  
H128     H      0.273700000000     0.925070000000     0.416230000000     0.0342735  
H129     H      0.701960000000     0.451030000000     0.141370000000     0.0355164  
H130     H      0.777650000000     0.412490000000     0.106810000000     0.0364866  
H131     H      0.833720000000     0.469030000000     0.102710000000     0.0355825  
H132     H      0.701020000000     0.461010000000     0.204320000000     0.0372519  
H133     H      0.716440000000     0.528480000000     0.155860000000     0.035163   
H134     H      0.758310000000     0.515190000000     0.197970000000     0.0331475  
H135     H      0.818010000000     0.401020000000     0.151620000000     0.0362052  
H136     H      0.829970000000     0.479090000000     0.166050000000     0.0355208  
H137     H      0.837210000000     0.690580000000     0.166480000000     0.0354222  
H138     H      0.763450000000     0.659510000000     0.197800000000     0.0331373  
H139     H      0.709410000000     0.716850000000     0.205240000000     0.0372605  
H140     H      0.841380000000     0.702400000000     0.103560000000     0.0357004  
H141     H      0.830820000000     0.769670000000     0.156060000000     0.0358458  
H142     H      0.790450000000     0.763230000000     0.110140000000     0.0366326  
H143     H      0.720620000000     0.649770000000     0.155670000000     0.0350506  
H144     H      0.711430000000     0.728330000000     0.142640000000     0.03534    
H145     H      0.833510000000     0.697510000000     0.852680000000     0.0337893  
H146     H      0.757890000000     0.663170000000     0.830120000000     0.0354198  
H147     H      0.708730000000     0.655970000000     0.898860000000     0.0351404  
H148     H      0.835020000000     0.754530000000     0.868650000000     0.0370046  
H149     H      0.836410000000     0.699800000000     0.938110000000     0.0373211  
H150     H      0.795270000000     0.741290000000     0.941100000000     0.0349778  
H151     H      0.712220000000     0.700060000000     0.824570000000     0.0365071  
H152     H      0.712960000000     0.714020000000     0.911150000000     0.0371126  
H153     H      0.707530000000     0.462050000000     0.911670000000     0.0367341  
H154     H      0.787720000000     0.431920000000     0.940630000000     0.0351654  
H155     H      0.830360000000     0.421280000000     0.869110000000     0.0367394  
H156     H      0.704480000000     0.520340000000     0.900360000000     0.0353257  
H157     H      0.707700000000     0.476380000000     0.825370000000     0.036311   
H158     H      0.753310000000     0.513290000000     0.831520000000     0.0353131  
H159     H      0.830410000000     0.471940000000     0.941210000000     0.0372045  
H160     H      0.828670000000     0.478870000000     0.855530000000     0.0341084  
H161     H      0.561460000000     0.865110000000     0.192250000000     0.0339235  
H162     H      0.593470000000     0.940460000000     0.162650000000     0.0356178  
H163     H      0.670410000000     0.931650000000     0.143440000000     0.0359098  
H164     H      0.547740000000     0.824470000000     0.148340000000     0.0354475  
H165     H      0.617290000000     0.808300000000     0.191270000000     0.0363899  
H166     H      0.624310000000     0.814440000000     0.128190000000     0.0350238  
H167     H      0.600700000000     0.947590000000     0.099270000000     0.0366497  
H168     H      0.658080000000     0.892050000000     0.097520000000     0.0357404  
H169     H      0.368020000000     0.946610000000     0.145650000000     0.0351667  
H170     H      0.401140000000     0.875840000000     0.184260000000     0.0343437  
H171     H      0.355780000000     0.809490000000     0.174780000000     0.0371507  
H172     H      0.365490000000     0.948710000000     0.081360000000     0.0342447  
H173     H      0.294080000000     0.927860000000     0.123800000000     0.0367321  
H174     H      0.312200000000     0.890000000000     0.078710000000     0.0354566  
H175     H      0.426640000000     0.836290000000     0.145740000000     0.03399    
H176     H      0.354750000000     0.817420000000     0.111460000000     0.0373775  
H177     H      0.418160000000     0.855370000000     0.841580000000     0.0343411  
H178     H      0.391110000000     0.936220000000     0.863670000000     0.0362675  
H179     H      0.312750000000     0.935250000000     0.878500000000     0.0352577  
H180     H      0.424640000000     0.816970000000     0.889610000000     0.0358615  
H181     H      0.356600000000     0.805400000000     0.841620000000     0.0360201  
H182     H      0.346680000000     0.815510000000     0.903600000000     0.0347176  
H183     H      0.381560000000     0.947390000000     0.925970000000     0.0363369  
H184     H      0.319380000000     0.897310000000     0.927420000000     0.0361753  
H185     H      0.585180000000     0.854730000000     0.832250000000     0.0364842  
H186     H      0.630670000000     0.929460000000     0.856290000000     0.0330566  
H187     H      0.612130000000     0.937130000000     0.937580000000     0.0371498  
H188     H      0.615690000000     0.804150000000     0.836110000000     0.0361737  
H189     H      0.563300000000     0.809740000000     0.901250000000     0.0355789  
H190     H      0.618270000000     0.810090000000     0.923720000000     0.0374026  
H191     H      0.681040000000     0.919820000000     0.886190000000     0.0375139  
H192     H      0.646620000000     0.892950000000     0.955650000000     0.0330847  
H193     H      0.211750000000     0.651010000000     0.160100000000     0.0334622  
H194     H      0.134010000000     0.681610000000     0.136400000000     0.035906   
H195     H      0.137100000000     0.761400000000     0.127980000000     0.0356075  
H196     H      0.251730000000     0.646430000000     0.113870000000     0.0357566  
H197     H      0.262320000000     0.711280000000     0.167970000000     0.0368944  
H198     H      0.256650000000     0.725640000000     0.106380000000     0.0347449  
H199     H      0.125600000000     0.695410000000     0.074530000000     0.0359509  
H200     H      0.175750000000     0.757350000000     0.079960000000     0.0366859  
H201     H      0.252190000000     0.455200000000     0.093330000000     0.0368105  
H202     H      0.171450000000     0.425980000000     0.061460000000     0.0338609  
H203     H      0.134890000000     0.406630000000     0.133590000000     0.0373474  
H204     H      0.254810000000     0.513210000000     0.106430000000     0.0354021  
H205     H      0.252840000000     0.469590000000     0.180010000000     0.0364179  
H206     H      0.205010000000     0.503600000000     0.174550000000     0.0357349  
H207     H      0.128560000000     0.465310000000     0.067190000000     0.0370505  
H208     H      0.130750000000     0.462760000000     0.152130000000     0.0335579  
H209     H      0.208080000000     0.512960000000     0.809930000000     0.0331378  
H210     H      0.134200000000     0.479540000000     0.837680000000     0.0353329  
H211     H      0.143110000000     0.401110000000     0.851940000000     0.0358984  
H212     H      0.248220000000     0.525650000000     0.854260000000     0.0352273  
H213     H      0.264520000000     0.457570000000     0.807770000000     0.03722    
H214     H      0.259830000000     0.447900000000     0.870540000000     0.0352099  
H215     H      0.127000000000     0.469540000000     0.900610000000     0.0361907  
H216     H      0.180900000000     0.410910000000     0.899760000000     0.0366484  
H217     H      0.182230000000     0.763510000000     0.911330000000     0.0364101  
H218     H      0.258360000000     0.722700000000     0.880390000000     0.036217   
H219     H      0.242790000000     0.646560000000     0.857340000000     0.0345629  
H220     H      0.144440000000     0.776280000000     0.864420000000     0.0364518  
H221     H      0.126690000000     0.706780000000     0.912180000000     0.0348685  
H222     H      0.130800000000     0.699090000000     0.848500000000     0.0352652  
H223     H      0.263340000000     0.716130000000     0.817130000000     0.0374434  
H224     H      0.202520000000     0.664940000000     0.815520000000     0.0334991  
H225     H      0.406740000000     0.317810000000     0.181200000000     0.0340289  
H226     H      0.376750000000     0.241790000000     0.149930000000     0.0357244  
H227     H      0.298980000000     0.249780000000     0.136800000000     0.0359611  
H228     H      0.419180000000     0.359450000000     0.138030000000     0.035418   
H229     H      0.350620000000     0.374290000000     0.182030000000     0.0371051  
H230     H      0.342020000000     0.368280000000     0.119200000000     0.0356381  
H231     H      0.367290000000     0.237050000000     0.086650000000     0.0351103  
H232     H      0.307450000000     0.289280000000     0.089950000000     0.0363723  
H233     H      0.607540000000     0.366220000000     0.124360000000     0.0364112  
H234     H      0.639100000000     0.288740000000     0.086120000000     0.0340361  
H235     H      0.657910000000     0.243150000000     0.153190000000     0.0371379  
H236     H      0.550600000000     0.365330000000     0.139950000000     0.0346009  
H237     H      0.597790000000     0.359570000000     0.211170000000     0.0370855  
H238     H      0.564410000000     0.311360000000     0.203370000000     0.03521    
H239     H      0.601820000000     0.243560000000     0.086250000000     0.0368657  
H240     H      0.602260000000     0.239450000000     0.171850000000     0.0340987  
H241     H      0.640100000000     0.291930000000     0.948050000000     0.0333075  
H242     H      0.609900000000     0.372430000000     0.910560000000     0.0373619  
H243     H      0.608830000000     0.372410000000     0.822820000000     0.0365953  
H244     H      0.605780000000     0.246250000000     0.934420000000     0.037077   
H245     H      0.673200000000     0.258840000000     0.880510000000     0.037371   
H246     H      0.622140000000     0.249280000000     0.851850000000     0.0331401  
H247     H      0.555180000000     0.369920000000     0.887570000000     0.0349825  
H248     H      0.578700000000     0.321500000000     0.822210000000     0.0359256  
H249     H      0.388880000000     0.242220000000     0.863750000000     0.0362643  
H250     H      0.417260000000     0.321500000000     0.837530000000     0.0340511  
H251     H      0.356030000000     0.370910000000     0.828930000000     0.0362641  
H252     H      0.375660000000     0.235120000000     0.925970000000     0.0361192  
H253     H      0.309930000000     0.243770000000     0.872850000000     0.0356124  
H254     H      0.313540000000     0.284740000000     0.919170000000     0.0365744  
H255     H      0.420730000000     0.363000000000     0.882800000000     0.0359225  
H256     H      0.342240000000     0.365360000000     0.890700000000     0.0346159  
N1       N      0.145320000000     0.336080000000     0.660720000000    -0.180384   
N2       N      0.067080000000     0.355040000000     0.615230000000    -0.180471   
N3       N      0.123570000000     0.362850000000     0.328250000000    -0.180073   
N4       N      0.081510000000     0.354280000000     0.416000000000    -0.179974   
N5       N      0.908720000000     0.358730000000     0.398470000000    -0.180381   
N6       N      0.834030000000     0.345250000000     0.343550000000    -0.18009    
N7       N      0.843560000000     0.364650000000     0.684430000000    -0.179723   
N8       N      0.891150000000     0.356560000000     0.599730000000    -0.179571   
N9       N      0.723560000000     0.177900000000     0.617270000000    -0.180613   
N10      N      0.719500000000     0.236290000000     0.693970000000    -0.180476   
N11      N      0.708380000000     0.224640000000     0.341230000000    -0.181145   
N12      N      0.720970000000     0.178410000000     0.425350000000    -0.181486   
N13      N      0.712330000000     0.955160000000     0.333130000000    -0.180631   
N14      N      0.722370000000     0.997770000000     0.420230000000    -0.180717   
N15      N      0.719470000000     0.942070000000     0.698510000000    -0.180648   
N16      N      0.725200000000     0.993170000000     0.616410000000    -0.180808   
N17      N      0.128350000000     0.813270000000     0.322130000000    -0.179508   
N18      N      0.086880000000     0.821010000000     0.410710000000    -0.179284   
N19      N      0.074800000000     0.819980000000     0.613040000000    -0.180107   
N20      N      0.147740000000     0.836780000000     0.669760000000    -0.179879   
N21      N      0.840590000000     0.815400000000     0.678790000000    -0.180309   
N22      N      0.902230000000     0.815220000000     0.601570000000    -0.180344   
N23      N      0.913150000000     0.815060000000     0.399210000000    -0.180319   
N24      N      0.836670000000     0.833390000000     0.349610000000    -0.180009   
N25      N      0.243180000000     0.240660000000     0.333010000000    -0.179137   
N26      N      0.256440000000     0.166420000000     0.390820000000    -0.17941    
N27      N      0.261730000000     0.173610000000     0.593740000000    -0.17976    
N28      N      0.271190000000     0.217950000000     0.680490000000    -0.179838   
N29      N      0.270530000000     0.955750000000     0.687950000000    -0.179779   
N30      N      0.258960000000     0.996840000000     0.599680000000    -0.179791   
N31      N      0.250820000000     0.988870000000     0.401320000000    -0.179738   
N32      N      0.251830000000     0.938910000000     0.317490000000    -0.179881   
N33      N      0.775900000000     0.501930000000     0.126720000000    -0.180569   
N34      N      0.756640000000     0.425310000000     0.177320000000    -0.180018   
N35      N      0.767450000000     0.749540000000     0.179670000000    -0.180061   
N36      N      0.781440000000     0.673110000000     0.126760000000    -0.180828   
N37      N      0.770620000000     0.678300000000     0.925330000000    -0.179527   
N38      N      0.773660000000     0.729890000000     0.842740000000    -0.179793   
N39      N      0.769130000000     0.446470000000     0.843360000000    -0.180186   
N40      N      0.765790000000     0.496360000000     0.926840000000    -0.179888   
N41      N      0.648640000000     0.868240000000     0.167630000000    -0.180715   
N42      N      0.570750000000     0.886870000000     0.121520000000    -0.180824   
N43      N      0.319960000000     0.866310000000     0.149130000000    -0.179934   
N44      N      0.399180000000     0.893440000000     0.111380000000    -0.18103    
N45      N      0.329920000000     0.869100000000     0.859490000000    -0.179982   
N46      N      0.407220000000     0.883300000000     0.909350000000    -0.180044   
N47      N      0.586910000000     0.871980000000     0.927000000000    -0.179645   
N48      N      0.650240000000     0.863210000000     0.854980000000    -0.179587   
N49      N      0.201790000000     0.742300000000     0.147820000000    -0.179078   
N50      N      0.187630000000     0.667070000000     0.091930000000    -0.179643   
N51      N      0.193290000000     0.436070000000     0.161660000000    -0.179597   
N52      N      0.193410000000     0.489290000000     0.079920000000    -0.17962    
N53      N      0.206640000000     0.423220000000     0.831100000000    -0.179551   
N54      N      0.186910000000     0.500760000000     0.880210000000    -0.180247   
N55      N      0.183940000000     0.673640000000     0.887350000000    -0.180382   
N56      N      0.206880000000     0.752110000000     0.841990000000    -0.179277   
N57      N      0.319170000000     0.314160000000     0.159190000000    -0.178869   
N58      N      0.396860000000     0.297180000000     0.110180000000    -0.179713   
N59      N      0.630610000000     0.301160000000     0.185840000000    -0.180962   
N60      N      0.575730000000     0.306610000000     0.107230000000    -0.181094   
N61      N      0.643480000000     0.314810000000     0.846610000000    -0.179671   
N62      N      0.579850000000     0.310260000000     0.918480000000    -0.179685   
N63      N      0.328040000000     0.308700000000     0.850190000000    -0.180415   
N64      N      0.402070000000     0.298050000000     0.906300000000    -0.180538   
O1       O      0.530390000000     0.267490000000     0.058540000000    -0.558237   
O2       O      0.444920000000     0.263230000000     0.961230000000    -0.556688   
O3       O      0.533110000000     0.268930000000     0.964290000000    -0.549805   
O4       O      0.442030000000     0.262420000000     0.056700000000    -0.548454   
O5       O      0.439340000000     0.335810000000     0.058260000000    -0.563983   
O6       O      0.527400000000     0.342150000000     0.964450000000    -0.564798   
O7       O      0.441520000000     0.336610000000     0.961350000000    -0.562803   
O8       O      0.525390000000     0.340760000000     0.060200000000    -0.564027   
O9       O      0.148710000000     0.629640000000     0.941630000000    -0.54764    
O10      O      0.153410000000     0.535880000000     0.032270000000    -0.548171   
O11      O      0.150880000000     0.625130000000     0.037180000000    -0.55186    
O12      O      0.150630000000     0.540630000000     0.937040000000    -0.551896   
O13      O      0.223150000000     0.543580000000     0.934230000000    -0.561808   
O14      O      0.223480000000     0.625950000000     0.035900000000    -0.560873   
O15      O      0.225930000000     0.539090000000     0.030610000000    -0.566344   
O16      O      0.221320000000     0.630020000000     0.939070000000    -0.566287   
O17      O      0.447650000000     0.847500000000     0.965940000000    -0.561351   
O18      O      0.527530000000     0.849220000000     0.069130000000    -0.562936   
O19      O      0.442240000000     0.853080000000     0.062260000000    -0.570156   
O20      O      0.533530000000     0.842660000000     0.973460000000    -0.568793   
O21      O      0.539110000000     0.915750000000     0.969040000000    -0.546832   
O22      O      0.444260000000     0.926350000000     0.056610000000    -0.547449   
O23      O      0.532000000000     0.922350000000     0.063510000000    -0.555647   
O24      O      0.450760000000     0.920770000000     0.961640000000    -0.554471   
O25      O      0.738750000000     0.545780000000     0.074720000000    -0.563189   
O26      O      0.736240000000     0.632330000000     0.977690000000    -0.561871   
O27      O      0.733710000000     0.545080000000     0.978120000000    -0.560986   
O28      O      0.741520000000     0.632210000000     0.074350000000    -0.562774   
O29      O      0.814000000000     0.631060000000     0.069250000000    -0.554847   
O30      O      0.806190000000     0.542010000000     0.974490000000    -0.554818   
O31      O      0.808780000000     0.631410000000     0.974070000000    -0.552163   
O32      O      0.811160000000     0.542370000000     0.069580000000    -0.553192   
O33      O      0.220950000000     0.124860000000     0.446810000000    -0.558857   
O34      O      0.222180000000     0.041840000000     0.548050000000    -0.559734   
O35      O      0.223900000000     0.128650000000     0.543540000000    -0.565009   
O36      O      0.218570000000     0.037960000000     0.451680000000    -0.564948   
O37      O      0.291080000000     0.035110000000     0.448990000000    -0.549171   
O38      O      0.296460000000     0.127910000000     0.540570000000    -0.548808   
O39      O      0.294630000000     0.038740000000     0.544090000000    -0.552676   
O40      O      0.293540000000     0.124310000000     0.445110000000    -0.552225   
O41      O      0.953690000000     0.779250000000     0.455760000000    -0.55292    
O42      O      0.036960000000     0.781900000000     0.556040000000    -0.553931   
O43      O      0.949310000000     0.779190000000     0.551310000000    -0.550462   
O44      O      0.041730000000     0.782080000000     0.460630000000    -0.54991    
O45      O      0.039190000000     0.855460000000     0.460960000000    -0.561197   
O46      O      0.946900000000     0.852590000000     0.550430000000    -0.560908   
O47      O      0.032710000000     0.855190000000     0.557610000000    -0.560984   
O48      O      0.953590000000     0.852690000000     0.454010000000    -0.561901   
O49      O      0.687250000000     0.040220000000     0.567980000000    -0.557279   
O50      O      0.685130000000     0.131110000000     0.475120000000    -0.557887   
O51      O      0.685900000000     0.041790000000     0.473180000000    -0.55653    
O52      O      0.686450000000     0.129780000000     0.569390000000    -0.55674    
O53      O      0.759100000000     0.129270000000     0.569050000000    -0.564823   
O54      O      0.758490000000     0.043450000000     0.471310000000    -0.564877   
O55      O      0.757760000000     0.130500000000     0.473040000000    -0.566817   
O56      O      0.759860000000     0.041910000000     0.567570000000    -0.565859   
O57      O      0.024870000000     0.319240000000     0.560340000000    -0.560872   
O58      O      0.947270000000     0.320940000000     0.455090000000    -0.560195   
O59      O      0.032750000000     0.319250000000     0.464180000000    -0.564465   
O60      O      0.939160000000     0.320350000000     0.551590000000    -0.563382   
O61      O      0.939260000000     0.393780000000     0.551570000000    -0.550298   
O62      O      0.034890000000     0.392640000000     0.464810000000    -0.550893   
O63      O      0.947300000000     0.394360000000     0.456540000000    -0.556868   
O64      O      0.027160000000     0.392640000000     0.559700000000    -0.556246   
O65      O      0.256970000000     0.310920000000     0.306980000000    -0.553662   
O66      O      0.229230000000     0.406840000000     0.225620000000    -0.559787   
O67      O      0.194610000000     0.373570000000     0.305890000000    -0.555381   
O68      O      0.290550000000     0.345800000000     0.226200000000    -0.559653   
O69      O      0.248700000000     0.300940000000     0.183050000000    -0.550829   
O70      O      0.152650000000     0.328430000000     0.263170000000    -0.558653   
O71      O      0.185580000000     0.363430000000     0.182850000000    -0.552944   
O72      O      0.213550000000     0.267400000000     0.264020000000    -0.557273   
O73      O      0.664210000000     0.336010000000     0.247540000000    -0.566832   
O74      O      0.763610000000     0.359920000000     0.322490000000    -0.560864   
O75      O      0.726220000000     0.396290000000     0.244920000000    -0.560046   
O76      O      0.700390000000     0.298070000000     0.323830000000    -0.556612   
O77      O      0.741120000000     0.255580000000     0.276690000000    -0.567294   
O78      O      0.767600000000     0.353470000000     0.198830000000    -0.560173   
O79      O      0.803340000000     0.315370000000     0.276560000000    -0.559471   
O80      O      0.703630000000     0.292220000000     0.200480000000    -0.556927   
O81      O      0.813910000000     0.333360000000     0.751130000000    -0.558873   
O82      O      0.716770000000     0.309150000000     0.830920000000    -0.553682   
O83      O      0.753850000000     0.271130000000     0.755250000000    -0.564858   
O84      O      0.778750000000     0.373170000000     0.827560000000    -0.558661   
O85      O      0.734600000000     0.412660000000     0.781050000000    -0.557876   
O86      O      0.710660000000     0.310390000000     0.707470000000    -0.553892   
O87      O      0.674740000000     0.349740000000     0.783210000000    -0.561299   
O88      O      0.771870000000     0.374940000000     0.704410000000    -0.554893   
O89      O      0.810670000000     0.861930000000     0.279750000000    -0.560224   
O90      O      0.717900000000     0.883000000000     0.193370000000    -0.556628   
O91      O      0.749230000000     0.922330000000     0.272120000000    -0.56268    
O92      O      0.780430000000     0.821340000000     0.200510000000    -0.55657    
O93      O      0.735680000000     0.780680000000     0.245080000000    -0.56343    
O94      O      0.704210000000     0.881700000000     0.316390000000    -0.557917   
O95      O      0.674520000000     0.840660000000     0.237770000000    -0.563582   
O96      O      0.767090000000     0.819800000000     0.324140000000    -0.557945   
O97      O      0.756600000000     0.906410000000     0.757380000000    -0.562669   
O98      O      0.783430000000     0.803420000000     0.827640000000    -0.555896   
O99      O      0.815610000000     0.843260000000     0.749590000000    -0.557347   
O100     O      0.722660000000     0.868470000000     0.834900000000    -0.552514   
O101     O      0.678150000000     0.827820000000     0.790040000000    -0.561618   
O102     O      0.770330000000     0.804370000000     0.703790000000    -0.555413   
O103     O      0.737570000000     0.764840000000     0.782240000000    -0.558801   
O104     O      0.709720000000     0.868340000000     0.712760000000    -0.556177   
O105     O      0.198740000000     0.802690000000     0.297060000000    -0.555132   
O106     O      0.292490000000     0.832480000000     0.215290000000    -0.562988   
O107     O      0.260360000000     0.866510000000     0.296130000000    -0.55568    
O108     O      0.232930000000     0.770070000000     0.215510000000    -0.559465   
O109     O      0.187500000000     0.812530000000     0.173820000000    -0.552359   
O110     O      0.215540000000     0.909250000000     0.254000000000    -0.558487   
O111     O      0.248930000000     0.876130000000     0.172720000000    -0.552379   
O112     O      0.155200000000     0.847160000000     0.255460000000    -0.557532   
O113     O      0.261970000000     0.885630000000     0.830620000000    -0.552557   
O114     O      0.171430000000     0.865240000000     0.740810000000    -0.55685    
O115     O      0.198230000000     0.824890000000     0.821770000000    -0.553268   
O116     O      0.233470000000     0.924640000000     0.750030000000    -0.559857   
O117     O      0.279160000000     0.882860000000     0.707960000000    -0.55468    
O118     O      0.243480000000     0.782950000000     0.779300000000    -0.560712   
O119     O      0.215850000000     0.822060000000     0.698680000000    -0.558697   
O120     O      0.305790000000     0.841760000000     0.788520000000    -0.562054   
O121     O      0.213880000000     0.351580000000     0.688160000000    -0.556903   
O122     O      0.304460000000     0.333790000000     0.777950000000    -0.561137   
O123     O      0.278160000000     0.291480000000     0.698160000000    -0.554551   
O124     O      0.242040000000     0.392100000000     0.767890000000    -0.561027   
O125     O      0.196930000000     0.350570000000     0.811040000000    -0.55437    
O126     O      0.233120000000     0.249910000000     0.741330000000    -0.560866   
O127     O      0.260800000000     0.290610000000     0.821090000000    -0.557508   
O128     O      0.170290000000     0.308330000000     0.731260000000    -0.56153    
V1       V      0.487600000000     0.262500000000     0.010160000000     1.3712     
V2       V      0.483030000000     0.341680000000     0.011110000000     1.41296    
V3       V      0.147930000000     0.582790000000     0.987190000000     1.35976    
V4       V      0.226280000000     0.584800000000     0.984950000000     1.41572    
V5       V      0.487490000000     0.845280000000     0.017760000000     1.42026    
V6       V      0.491630000000     0.924320000000     0.012340000000     1.36237    
V7       V      0.734700000000     0.588960000000     0.026250000000     1.40723    
V8       V      0.812980000000     0.586630000000     0.021490000000     1.37346    
V9       V      0.218580000000     0.083460000000     0.497620000000     1.40917    
V10      V      0.296890000000     0.081500000000     0.494560000000     1.36379    
V11      V      0.995510000000     0.777620000000     0.505890000000     1.36817    
V12      V      0.993030000000     0.856850000000     0.505760000000     1.40517    
V13      V      0.683210000000     0.085620000000     0.521530000000     1.38294    
V14      V      0.761670000000     0.086260000000     0.520250000000     1.41518    
V15      V      0.985920000000     0.317070000000     0.507820000000     1.4067     
V16      V      0.987160000000     0.396340000000     0.508220000000     1.37332    
V17      V      0.244560000000     0.360890000000     0.268010000000     1.38985    
V18      V      0.198600000000     0.313290000000     0.221310000000     1.38098    
V19      V      0.712180000000     0.349340000000     0.286720000000     1.39824    
V20      V      0.755540000000     0.302640000000     0.236040000000     1.39773    
V21      V      0.767480000000     0.320300000000     0.793350000000     1.39459    
V22      V      0.721380000000     0.363510000000     0.741960000000     1.38614    
V23      V      0.766350000000     0.873700000000     0.234560000000     1.39153    
V24      V      0.718740000000     0.829160000000     0.282880000000     1.3986     
V25      V      0.771360000000     0.856740000000     0.794440000000     1.38781    
V26      V      0.722260000000     0.814750000000     0.745280000000     1.39093    
V27      V      0.247710000000     0.816240000000     0.257900000000     1.39357    
V28      V      0.200000000000     0.862890000000     0.212190000000     1.38056    
V29      V      0.214510000000     0.876710000000     0.787680000000     1.38168    
V30      V      0.262820000000     0.830850000000     0.741760000000     1.39582    
V31      V      0.261330000000     0.343790000000     0.731060000000     1.39164    
V32      V      0.213530000000     0.298250000000     0.778020000000     1.39197    


