data_structure

_audit_creation_method RASPA-1.0
_audit_creation_date 2023-5-19
_audit_author_name 'Poobodin Mano'

_cell_length_a    41.9731
_cell_length_b    42.0682
_cell_length_c    41.773
_cell_angle_alpha 90
_cell_angle_beta  90
_cell_angle_gamma 90
_cell_volume      73760

_symmetry_cell_setting          triclinic
_symmetry_space_group_name_Hall 'P 1'
_symmetry_space_group_name_H-M  'P 1'
_symmetry_Int_Tables_number     1

_symmetry_equiv_pos_as_xyz 'x,y,z'

loop_
_atom_site_label
_atom_site_type_symbol
_atom_site_fract_x
_atom_site_fract_y
_atom_site_fract_z
_atom_site_charge
C1       C      0.507810000000     0.059580000000     0.262110000000     0.474183   
C2       C      0.501110000000     0.439930000000     0.271750000000     0.477137   
C3       C      0.444000000000     0.502810000000     0.260940000000     0.473383   
C4       C      0.063720000000     0.495900000000     0.273280000000     0.478018   
C5       C      0.999930000000     0.309040000000     0.260800000000     0.482607   
C6       C      0.999930000000     0.189150000000     0.248700000000     0.478739   
C7       C      0.502400000000     0.245570000000     0.314330000000     0.472644   
C8       C      0.497500000000     0.253850000000     0.193560000000     0.473988   
C9       C      0.312520000000     0.006560000000     0.251120000000     0.467275   
C10      C      0.192170000000     0.002060000000     0.259440000000     0.468205   
C11      C      0.247330000000     0.508280000000     0.195480000000     0.475294   
C12      C      0.256410000000     0.499500000000     0.315920000000     0.472262   
C13      C      0.248960000000     0.509230000000     0.064230000000     0.473984   
C14      C      0.268830000000     0.502510000000     0.445080000000     0.476873   
C15      C      0.258520000000     0.444950000000     0.508020000000     0.475633   
C16      C      0.259240000000     0.065050000000     0.502840000000     0.472745   
C17      C      0.006680000000     0.270410000000     0.065920000000     0.475399   
C18      C      0.008990000000     0.252140000000     0.446560000000     0.474176   
C19      C      0.068260000000     0.258060000000     0.508750000000     0.474854   
C20      C      0.448380000000     0.265140000000     0.503390000000     0.476081   
C21      C      0.263400000000     0.194790000000     0.999320000000     0.481987   
C22      C      0.253010000000     0.314050000000     0.010910000000     0.468582   
C23      C      0.317800000000     0.257930000000     0.499370000000     0.473984   
C24      C      0.198310000000     0.248830000000     0.511360000000     0.474345   
C25      C      0.368750000000     0.235780000000     0.017590000000    -0.0097974  
C26      C      0.366760000000     0.270070000000     0.468520000000    -0.0190619  
C27      C      0.398140000000     0.253170000000     0.029250000000    -0.00793493 
C28      C      0.397580000000     0.287220000000     0.479450000000     0.0324373  
C29      C      0.147960000000     0.225140000000     0.992730000000    -7.22469e-06
C30      C      0.149640000000     0.257850000000     0.042990000000    -0.0193033  
C31      C      0.116820000000     0.241200000000     0.482950000000    -0.00904185 
C32      C      0.119970000000     0.276390000000     0.532020000000     0.0346443  
C33      C      0.228630000000     0.364160000000     0.492290000000    -0.00739359 
C34      C      0.261010000000     0.363060000000     0.042570000000    -0.0194324  
C35      C      0.244420000000     0.395260000000     0.482320000000    -0.00971266 
C36      C      0.278090000000     0.394030000000     0.032670000000     0.0328898  
C37      C      0.233040000000     0.115950000000     0.990080000000    -0.000729926
C38      C      0.281930000000     0.114030000000     0.025340000000    -0.0186327  
C39      C      0.246390000000     0.145570000000     0.473510000000    -0.00723325 
C40      C      0.294250000000     0.144380000000     0.509320000000     0.0356657  
C41      C      0.239810000000     0.020470000000     0.368290000000    -0.0105938  
C42      C      0.271670000000     0.469770000000     0.364970000000    -0.0200667  
C43      C      0.260680000000     0.031810000000     0.395680000000    -0.00496362 
C44      C      0.292290000000     0.481070000000     0.393630000000     0.0334026  
C45      C      0.262210000000     0.038470000000     0.113340000000    -0.00692525 
C46      C      0.214880000000     0.502550000000     0.111850000000    -0.0183217  
C47      C      0.271180000000     0.026470000000     0.146560000000    -0.00991331 
C48      C      0.224150000000     0.488210000000     0.144490000000     0.0342745  
C49      C      0.527340000000     0.268240000000     0.362080000000    -0.00827211 
C50      C      0.475590000000     0.238090000000     0.365920000000    -0.0185     
C51      C      0.036240000000     0.257040000000     0.395670000000    -0.00931134 
C52      C      0.985780000000     0.224720000000     0.398590000000     0.0358353  
C53      C      0.521020000000     0.238470000000     0.141930000000    -0.00703836 
C54      C      0.469910000000     0.269830000000     0.143560000000    -0.0194951  
C55      C      0.033970000000     0.260530000000     0.116270000000    -0.00531332 
C56      C      0.983000000000     0.292070000000     0.117060000000     0.0359418  
C57      C      0.141240000000     0.028890000000     0.271820000000    -0.00884744 
C58      C      0.142000000000     0.474690000000     0.245650000000    -0.0200519  
C59      C      0.113730000000     0.018040000000     0.293400000000    -0.00928041 
C60      C      0.114040000000     0.464730000000     0.266820000000     0.0326183  
C61      C      0.362900000000     0.487130000000     0.227320000000    -0.00838444 
C62      C      0.361970000000     0.036180000000     0.261310000000    -0.019941   
C63      C      0.395610000000     0.478280000000     0.241260000000    -0.0103347  
C64      C      0.391910000000     0.025130000000     0.279140000000     0.0352642  
C65      C      0.471110000000     0.357320000000     0.278210000000    -0.00745457 
C66      C      0.030790000000     0.356390000000     0.276150000000    -0.0177076  
C67      C      0.471310000000     0.391800000000     0.266720000000    -0.00970706 
C68      C      0.031100000000     0.391120000000     0.265130000000     0.0280239  
C69      C      0.473140000000     0.137970000000     0.258560000000    -0.00796722 
C70      C      0.024580000000     0.139850000000     0.227690000000    -0.023058   
C71      C      0.486410000000     0.110810000000     0.278800000000    -0.00812664 
C72      C      0.036160000000     0.109900000000     0.245610000000     0.033563   
C73      C      0.507810000000     0.059580000000     0.762110000000     0.474478   
C74      C      0.501110000000     0.439930000000     0.771750000000     0.477124   
C75      C      0.444000000000     0.502810000000     0.760940000000     0.473364   
C76      C      0.063720000000     0.495900000000     0.773280000000     0.478006   
C77      C      0.999930000000     0.309040000000     0.760800000000     0.482579   
C78      C      0.999930000000     0.189150000000     0.748700000000     0.478726   
C79      C      0.502400000000     0.245570000000     0.814330000000     0.472654   
C80      C      0.497500000000     0.253850000000     0.693560000000     0.473986   
C81      C      0.312520000000     0.006560000000     0.751120000000     0.467281   
C82      C      0.192170000000     0.002060000000     0.759440000000     0.468211   
C83      C      0.247330000000     0.508280000000     0.695480000000     0.475285   
C84      C      0.256410000000     0.499500000000     0.815930000000     0.472184   
C85      C      0.248960000000     0.509230000000     0.564230000000     0.473646   
C86      C      0.268830000000     0.502510000000     0.945080000000     0.476974   
C87      C      0.258520000000     0.444950000000     0.008020000000     0.475597   
C88      C      0.259240000000     0.065050000000     0.002840000000     0.468352   
C89      C      0.006680000000     0.270410000000     0.565920000000     0.475734   
C90      C      0.008990000000     0.252140000000     0.946570000000     0.473346   
C91      C      0.068260000000     0.258060000000     0.008750000000     0.473922   
C92      C      0.448380000000     0.265140000000     0.003390000000     0.470553   
C93      C      0.263400000000     0.194790000000     0.499320000000     0.477301   
C94      C      0.253010000000     0.314050000000     0.510910000000     0.473037   
C95      C      0.317800000000     0.257930000000     0.999370000000     0.478777   
C96      C      0.198310000000     0.248830000000     0.011360000000     0.469581   
C97      C      0.368750000000     0.235780000000     0.517590000000    -0.00700778 
C98      C      0.366760000000     0.270070000000     0.968520000000    -0.019005   
C99      C      0.398140000000     0.253170000000     0.529250000000    -0.00814938 
C100     C      0.397580000000     0.287220000000     0.979450000000     0.0345964  
C101     C      0.147960000000     0.225140000000     0.492730000000    -0.0069966  
C102     C      0.149640000000     0.257850000000     0.542990000000    -0.0190685  
C103     C      0.116820000000     0.241200000000     0.982950000000    -0.00784637 
C104     C      0.119970000000     0.276390000000     0.032020000000     0.034503   
C105     C      0.228630000000     0.364160000000     0.992290000000    -0.000518016
C106     C      0.261010000000     0.363060000000     0.542570000000    -0.0192222  
C107     C      0.244420000000     0.395260000000     0.982320000000    -0.00840306 
C108     C      0.278090000000     0.394030000000     0.532670000000     0.03304    
C109     C      0.233040000000     0.115950000000     0.490080000000    -0.00838826 
C110     C      0.281930000000     0.114030000000     0.525340000000    -0.020006   
C111     C      0.246390000000     0.145570000000     0.973510000000    -0.00890001 
C112     C      0.294250000000     0.144380000000     0.009320000000     0.0291051  
C113     C      0.239810000000     0.020470000000     0.868290000000    -0.0105896  
C114     C      0.271670000000     0.469770000000     0.864970000000    -0.0199757  
C115     C      0.260680000000     0.031810000000     0.895680000000    -0.00492602 
C116     C      0.292290000000     0.481070000000     0.893630000000     0.0331166  
C117     C      0.262210000000     0.038470000000     0.613340000000    -0.00691409 
C118     C      0.214880000000     0.502550000000     0.611850000000    -0.0184082  
C119     C      0.271180000000     0.026470000000     0.646560000000    -0.00992163 
C120     C      0.224150000000     0.488210000000     0.644490000000     0.0342719  
C121     C      0.527340000000     0.268240000000     0.862080000000    -0.00823743 
C122     C      0.475590000000     0.238090000000     0.865920000000    -0.0183895  
C123     C      0.036240000000     0.257040000000     0.895670000000    -0.00940492 
C124     C      0.985780000000     0.224720000000     0.898590000000     0.0354446  
C125     C      0.521020000000     0.238470000000     0.641930000000    -0.00705792 
C126     C      0.469910000000     0.269830000000     0.643560000000    -0.01944    
C127     C      0.033970000000     0.260530000000     0.616270000000    -0.00529569 
C128     C      0.983000000000     0.292070000000     0.617070000000     0.0357511  
C129     C      0.141240000000     0.028890000000     0.771820000000    -0.00884303 
C130     C      0.142000000000     0.474690000000     0.745650000000    -0.0200607  
C131     C      0.113730000000     0.018040000000     0.793400000000    -0.00930105 
C132     C      0.114040000000     0.464730000000     0.766820000000     0.0326124  
C133     C      0.362900000000     0.487130000000     0.727330000000    -0.00828942 
C134     C      0.361970000000     0.036180000000     0.761310000000    -0.0199264  
C135     C      0.395610000000     0.478280000000     0.741260000000    -0.0103847  
C136     C      0.391910000000     0.025130000000     0.779140000000     0.0351977  
C137     C      0.471110000000     0.357320000000     0.778210000000    -0.00746966 
C138     C      0.030790000000     0.356390000000     0.776150000000    -0.0177213  
C139     C      0.471310000000     0.391800000000     0.766720000000    -0.00970009 
C140     C      0.031100000000     0.391120000000     0.765130000000     0.0280144  
C141     C      0.473140000000     0.137970000000     0.758560000000    -0.00797044 
C142     C      0.024580000000     0.139850000000     0.727690000000    -0.0230742  
C143     C      0.486410000000     0.110810000000     0.778800000000    -0.00813225 
C144     C      0.036160000000     0.109900000000     0.745610000000     0.0335396  
C145     C      0.507810000000     0.559580000000     0.262110000000     0.474015   
C146     C      0.501110000000     0.939930000000     0.271750000000     0.476991   
C147     C      0.444000000000     0.002810000000     0.260940000000     0.468922   
C148     C      0.063720000000     0.995900000000     0.273280000000     0.482468   
C149     C      0.999930000000     0.809040000000     0.260800000000     0.482617   
C150     C      0.999930000000     0.689150000000     0.248700000000     0.478752   
C151     C      0.502400000000     0.745570000000     0.314330000000     0.472641   
C152     C      0.497500000000     0.753850000000     0.193560000000     0.47401    
C153     C      0.312520000000     0.506560000000     0.251120000000     0.471723   
C154     C      0.192170000000     0.502060000000     0.259440000000     0.472617   
C155     C      0.247330000000     0.008280000000     0.195480000000     0.470977   
C156     C      0.256410000000     0.999500000000     0.315920000000     0.476812   
C157     C      0.248960000000     0.009230000000     0.064230000000     0.472935   
C158     C      0.268830000000     0.002510000000     0.445080000000     0.476156   
C159     C      0.258520000000     0.944950000000     0.508020000000     0.474964   
C160     C      0.259240000000     0.565050000000     0.502840000000     0.473025   
C161     C      0.006680000000     0.770410000000     0.065920000000     0.475376   
C162     C      0.008990000000     0.752140000000     0.446560000000     0.474463   
C163     C      0.068260000000     0.758060000000     0.508750000000     0.474826   
C164     C      0.448380000000     0.765140000000     0.503390000000     0.476061   
C165     C      0.263400000000     0.694790000000     0.999320000000     0.481973   
C166     C      0.253010000000     0.814050000000     0.010910000000     0.468594   
C167     C      0.317800000000     0.757930000000     0.499370000000     0.473985   
C168     C      0.198310000000     0.748830000000     0.511360000000     0.474345   
C169     C      0.368750000000     0.735780000000     0.017590000000    -0.00981484 
C170     C      0.366760000000     0.770060000000     0.468520000000    -0.0190066  
C171     C      0.398140000000     0.753180000000     0.029250000000    -0.00791417 
C172     C      0.397580000000     0.787220000000     0.479450000000     0.0323505  
C173     C      0.147960000000     0.725140000000     0.992730000000    -2.91119e-05
C174     C      0.149640000000     0.757850000000     0.042990000000    -0.0192782  
C175     C      0.116820000000     0.741200000000     0.482950000000    -0.00901567 
C176     C      0.119970000000     0.776390000000     0.532020000000     0.034551   
C177     C      0.228630000000     0.864160000000     0.492290000000    -0.00737766 
C178     C      0.261010000000     0.863060000000     0.042570000000    -0.0193436  
C179     C      0.244420000000     0.895260000000     0.482320000000    -0.00976067 
C180     C      0.278090000000     0.894030000000     0.032670000000     0.0325753  
C181     C      0.233040000000     0.615950000000     0.990080000000    -0.000728415
C182     C      0.281930000000     0.614030000000     0.025340000000    -0.0186221  
C183     C      0.246390000000     0.645570000000     0.473510000000    -0.00723822 
C184     C      0.294250000000     0.644380000000     0.509320000000     0.0356312  
C185     C      0.239810000000     0.520460000000     0.368290000000    -0.00787068 
C186     C      0.271670000000     0.969770000000     0.364970000000    -0.0200616  
C187     C      0.260680000000     0.531810000000     0.395680000000    -0.00539685 
C188     C      0.292290000000     0.981070000000     0.393630000000     0.0356321  
C189     C      0.262210000000     0.538470000000     0.113340000000    -0.0064439  
C190     C      0.214880000000     0.002550000000     0.111850000000    -0.0264342  
C191     C      0.271180000000     0.526470000000     0.146560000000    -0.0100591  
C192     C      0.224150000000     0.988210000000     0.144490000000     0.040407   
C193     C      0.527340000000     0.768240000000     0.362080000000    -0.00827831 
C194     C      0.475590000000     0.738090000000     0.365920000000    -0.0184679  
C195     C      0.036240000000     0.757040000000     0.395670000000    -0.00932602 
C196     C      0.985780000000     0.724710000000     0.398590000000     0.0357489  
C197     C      0.521020000000     0.738470000000     0.141930000000    -0.00705137 
C198     C      0.469910000000     0.769830000000     0.143560000000    -0.019483   
C199     C      0.033970000000     0.760530000000     0.116270000000    -0.00531426 
C200     C      0.983000000000     0.792070000000     0.117060000000     0.0358836  
C201     C      0.141240000000     0.528890000000     0.271820000000    -0.00899594 
C202     C      0.142000000000     0.974690000000     0.245650000000    -0.0173913  
C203     C      0.113730000000     0.518040000000     0.293400000000    -0.00672676 
C204     C      0.114040000000     0.964720000000     0.266820000000     0.0322477  
C205     C      0.362900000000     0.987130000000     0.227320000000    -0.0064237  
C206     C      0.361970000000     0.536180000000     0.261310000000    -0.0195628  
C207     C      0.395610000000     0.978280000000     0.241260000000    -0.00810023 
C208     C      0.391910000000     0.525130000000     0.279140000000     0.0354291  
C209     C      0.471110000000     0.857320000000     0.278210000000    -0.00744786 
C210     C      0.030790000000     0.856390000000     0.276150000000    -0.0176997  
C211     C      0.471310000000     0.891800000000     0.266720000000    -0.0097152  
C212     C      0.031100000000     0.891120000000     0.265130000000     0.027976   
C213     C      0.473140000000     0.637970000000     0.258560000000    -0.00799268 
C214     C      0.024580000000     0.639850000000     0.227690000000    -0.0230183  
C215     C      0.486410000000     0.610810000000     0.278800000000    -0.0080865  
C216     C      0.036160000000     0.609900000000     0.245610000000     0.0333166  
C217     C      0.507810000000     0.559580000000     0.762110000000     0.474311   
C218     C      0.501110000000     0.939930000000     0.771750000000     0.476977   
C219     C      0.444000000000     0.002810000000     0.760940000000     0.468907   
C220     C      0.063720000000     0.995900000000     0.773280000000     0.482448   
C221     C      0.999930000000     0.809040000000     0.760800000000     0.482589   
C222     C      0.999930000000     0.689150000000     0.748700000000     0.478739   
C223     C      0.502400000000     0.745570000000     0.814330000000     0.472651   
C224     C      0.497500000000     0.753850000000     0.693560000000     0.474008   
C225     C      0.312520000000     0.506560000000     0.751120000000     0.471725   
C226     C      0.192170000000     0.502060000000     0.759440000000     0.472619   
C227     C      0.247330000000     0.008280000000     0.695480000000     0.470969   
C228     C      0.256410000000     0.999500000000     0.815930000000     0.476722   
C229     C      0.248960000000     0.009230000000     0.564230000000     0.472595   
C230     C      0.268830000000     0.002510000000     0.945080000000     0.476259   
C231     C      0.258520000000     0.944950000000     0.008020000000     0.47493    
C232     C      0.259240000000     0.565050000000     0.002840000000     0.468626   
C233     C      0.006680000000     0.770410000000     0.565920000000     0.475711   
C234     C      0.008990000000     0.752140000000     0.946570000000     0.473632   
C235     C      0.068260000000     0.758060000000     0.008750000000     0.473895   
C236     C      0.448380000000     0.765140000000     0.003390000000     0.470539   
C237     C      0.263400000000     0.694790000000     0.499320000000     0.477291   
C238     C      0.253010000000     0.814050000000     0.510910000000     0.473044   
C239     C      0.317800000000     0.757930000000     0.999370000000     0.47877    
C240     C      0.198310000000     0.748830000000     0.011360000000     0.469585   
C241     C      0.368750000000     0.735780000000     0.517590000000    -0.00702832 
C242     C      0.366760000000     0.770060000000     0.968520000000    -0.0189498  
C243     C      0.398140000000     0.753180000000     0.529250000000    -0.00812772 
C244     C      0.397580000000     0.787220000000     0.979450000000     0.0345075  
C245     C      0.147960000000     0.725140000000     0.492730000000    -0.00701302 
C246     C      0.149640000000     0.757850000000     0.542990000000    -0.0190437  
C247     C      0.116820000000     0.741200000000     0.982950000000    -0.00782204 
C248     C      0.119970000000     0.776390000000     0.032020000000     0.0344097  
C249     C      0.228630000000     0.864160000000     0.992290000000    -0.000518249
C250     C      0.261010000000     0.863060000000     0.542570000000    -0.0191337  
C251     C      0.244420000000     0.895260000000     0.982320000000    -0.00845617 
C252     C      0.278090000000     0.894030000000     0.532670000000     0.0327247  
C253     C      0.233040000000     0.615950000000     0.490080000000    -0.00838866 
C254     C      0.281930000000     0.614030000000     0.525340000000    -0.0199953  
C255     C      0.246390000000     0.645570000000     0.973510000000    -0.00890572 
C256     C      0.294250000000     0.644380000000     0.009320000000     0.0290695  
C257     C      0.239810000000     0.520460000000     0.868290000000    -0.00787392 
C258     C      0.271670000000     0.969770000000     0.864970000000    -0.0199705  
C259     C      0.260680000000     0.531810000000     0.895680000000    -0.00535803 
C260     C      0.292290000000     0.981070000000     0.893630000000     0.0353383  
C261     C      0.262210000000     0.538470000000     0.613340000000    -0.00643204 
C262     C      0.214880000000     0.002550000000     0.611850000000    -0.0265299  
C263     C      0.271180000000     0.526470000000     0.646560000000    -0.0100678  
C264     C      0.224150000000     0.988210000000     0.644490000000     0.0404095  
C265     C      0.527340000000     0.768240000000     0.862080000000    -0.00824354 
C266     C      0.475590000000     0.738090000000     0.865920000000    -0.0183574  
C267     C      0.036240000000     0.757040000000     0.895670000000    -0.00941969 
C268     C      0.985780000000     0.724710000000     0.898590000000     0.0353584  
C269     C      0.521020000000     0.738470000000     0.641930000000    -0.00707096 
C270     C      0.469910000000     0.769830000000     0.643560000000    -0.0194279  
C271     C      0.033970000000     0.760530000000     0.616270000000    -0.00529663 
C272     C      0.983000000000     0.792070000000     0.617070000000     0.035693   
C273     C      0.141240000000     0.528890000000     0.771820000000    -0.00899119 
C274     C      0.142000000000     0.974690000000     0.745650000000    -0.0174034  
C275     C      0.113730000000     0.518040000000     0.793400000000    -0.00675088 
C276     C      0.114040000000     0.964720000000     0.766820000000     0.0322419  
C277     C      0.362900000000     0.987130000000     0.727330000000    -0.00633024 
C278     C      0.361970000000     0.536180000000     0.761310000000    -0.0195488  
C279     C      0.395610000000     0.978280000000     0.741260000000    -0.00815374 
C280     C      0.391910000000     0.525130000000     0.779140000000     0.0353627  
C281     C      0.471110000000     0.857320000000     0.778210000000    -0.00746288 
C282     C      0.030790000000     0.856390000000     0.776150000000    -0.0177134  
C283     C      0.471310000000     0.891800000000     0.766720000000    -0.0097083  
C284     C      0.031100000000     0.891120000000     0.765130000000     0.0279667  
C285     C      0.473140000000     0.637970000000     0.758560000000    -0.00799592 
C286     C      0.024580000000     0.639850000000     0.727690000000    -0.0230345  
C287     C      0.486410000000     0.610810000000     0.778800000000    -0.0080921  
C288     C      0.036160000000     0.609900000000     0.745610000000     0.0332932  
C289     C      0.007810000000     0.059580000000     0.262110000000     0.47309    
C290     C      0.001110000000     0.439930000000     0.271750000000     0.469902   
C291     C      0.943990000000     0.502810000000     0.260940000000     0.472284   
C292     C      0.563720000000     0.495900000000     0.273280000000     0.478638   
C293     C      0.499920000000     0.309040000000     0.260800000000     0.47222    
C294     C      0.499930000000     0.189150000000     0.248700000000     0.472479   
C295     C      0.002400000000     0.245570000000     0.314330000000     0.466517   
C296     C      0.997500000000     0.253850000000     0.193560000000     0.480116   
C297     C      0.812520000000     0.006560000000     0.251120000000     0.467311   
C298     C      0.692170000000     0.002060000000     0.259440000000     0.468171   
C299     C      0.747330000000     0.508280000000     0.195480000000     0.475261   
C300     C      0.756410000000     0.499500000000     0.315920000000     0.47225    
C301     C      0.748960000000     0.509230000000     0.064230000000     0.47396    
C302     C      0.768830000000     0.502510000000     0.445080000000     0.476843   
C303     C      0.758520000000     0.444950000000     0.508020000000     0.475305   
C304     C      0.759240000000     0.065050000000     0.502840000000     0.473038   
C305     C      0.506680000000     0.270410000000     0.065920000000     0.476379   
C306     C      0.508990000000     0.252140000000     0.446560000000     0.475251   
C307     C      0.568260000000     0.258060000000     0.508750000000     0.475233   
C308     C      0.948380000000     0.265140000000     0.503390000000     0.475184   
C309     C      0.763400000000     0.194790000000     0.999320000000     0.481967   
C310     C      0.753010000000     0.314050000000     0.010910000000     0.468529   
C311     C      0.817800000000     0.257930000000     0.499370000000     0.474004   
C312     C      0.698310000000     0.248830000000     0.511360000000     0.474322   
C313     C      0.868750000000     0.235780000000     0.017590000000    -0.00975931 
C314     C      0.866760000000     0.270070000000     0.468520000000    -0.0189383  
C315     C      0.898130000000     0.253170000000     0.029250000000    -0.00801538 
C316     C      0.897580000000     0.287220000000     0.479450000000     0.0320111  
C317     C      0.647950000000     0.225140000000     0.992730000000    -4.98137e-05
C318     C      0.649640000000     0.257850000000     0.042990000000    -0.0192907  
C319     C      0.616820000000     0.241200000000     0.482950000000    -0.00902619 
C320     C      0.619970000000     0.276390000000     0.532020000000     0.0345549  
C321     C      0.728630000000     0.364160000000     0.492290000000    -0.00740631 
C322     C      0.761010000000     0.363060000000     0.042570000000    -0.0194514  
C323     C      0.744420000000     0.395260000000     0.482320000000    -0.00973011 
C324     C      0.778090000000     0.394030000000     0.032670000000     0.0328196  
C325     C      0.733040000000     0.115950000000     0.990080000000    -0.00072007 
C326     C      0.781930000000     0.114030000000     0.025340000000    -0.0186091  
C327     C      0.746380000000     0.145570000000     0.473510000000    -0.00731322 
C328     C      0.794250000000     0.144380000000     0.509320000000     0.0355661  
C329     C      0.739810000000     0.020470000000     0.368290000000    -0.0106153  
C330     C      0.771670000000     0.469770000000     0.364970000000    -0.020077   
C331     C      0.760680000000     0.031810000000     0.395680000000    -0.00497042 
C332     C      0.792290000000     0.481070000000     0.393630000000     0.0333116  
C333     C      0.762210000000     0.038470000000     0.113340000000    -0.00690864 
C334     C      0.714880000000     0.502550000000     0.111850000000    -0.0183481  
C335     C      0.771180000000     0.026470000000     0.146560000000    -0.00999709 
C336     C      0.724150000000     0.488210000000     0.144490000000     0.0342751  
C337     C      0.027340000000     0.268240000000     0.362080000000    -0.0087613  
C338     C      0.975590000000     0.238090000000     0.365920000000    -0.0154654  
C339     C      0.536240000000     0.257040000000     0.395670000000    -0.00893591 
C340     C      0.485780000000     0.224720000000     0.398590000000     0.033394   
C341     C      0.021020000000     0.238470000000     0.141930000000    -0.0107013  
C342     C      0.969910000000     0.269830000000     0.143560000000    -0.0195883  
C343     C      0.533970000000     0.260530000000     0.116270000000    -0.00586094 
C344     C      0.482990000000     0.292070000000     0.117060000000     0.0327929  
C345     C      0.641240000000     0.028890000000     0.271820000000    -0.00885687 
C346     C      0.642000000000     0.474690000000     0.245650000000    -0.0200797  
C347     C      0.613730000000     0.018040000000     0.293400000000    -0.00928376 
C348     C      0.614040000000     0.464730000000     0.266820000000     0.0326323  
C349     C      0.862900000000     0.487130000000     0.227320000000    -0.0083651  
C350     C      0.861970000000     0.036180000000     0.261310000000    -0.019872   
C351     C      0.895610000000     0.478280000000     0.241260000000    -0.0103882  
C352     C      0.891910000000     0.025130000000     0.279140000000     0.034963   
C353     C      0.971110000000     0.357320000000     0.278210000000    -0.00394567 
C354     C      0.530790000000     0.356390000000     0.276150000000    -0.0177808  
C355     C      0.971310000000     0.391800000000     0.266720000000    -0.00697881 
C356     C      0.531100000000     0.391120000000     0.265130000000     0.0285659  
C357     C      0.973140000000     0.137970000000     0.258560000000    -0.0083301  
C358     C      0.524580000000     0.139850000000     0.227690000000    -0.0194393  
C359     C      0.986410000000     0.110810000000     0.278800000000    -0.00420188 
C360     C      0.536160000000     0.109900000000     0.245610000000     0.0330454  
C361     C      0.007810000000     0.059580000000     0.762110000000     0.473387   
C362     C      0.001110000000     0.439930000000     0.771750000000     0.469907   
C363     C      0.943990000000     0.502810000000     0.760940000000     0.472268   
C364     C      0.563720000000     0.495900000000     0.773280000000     0.478624   
C365     C      0.499920000000     0.309040000000     0.760800000000     0.472217   
C366     C      0.499930000000     0.189150000000     0.748700000000     0.47248    
C367     C      0.002400000000     0.245570000000     0.814330000000     0.466543   
C368     C      0.997500000000     0.253850000000     0.693560000000     0.480103   
C369     C      0.812520000000     0.006560000000     0.751120000000     0.467317   
C370     C      0.692170000000     0.002060000000     0.759440000000     0.468177   
C371     C      0.747330000000     0.508280000000     0.695480000000     0.475253   
C372     C      0.756410000000     0.499500000000     0.815930000000     0.472172   
C373     C      0.748960000000     0.509230000000     0.564230000000     0.473623   
C374     C      0.768830000000     0.502510000000     0.945080000000     0.476944   
C375     C      0.758520000000     0.444950000000     0.008020000000     0.475267   
C376     C      0.759240000000     0.065050000000     0.002840000000     0.468653   
C377     C      0.506680000000     0.270410000000     0.565920000000     0.476718   
C378     C      0.508990000000     0.252140000000     0.946570000000     0.474414   
C379     C      0.568260000000     0.258060000000     0.008750000000     0.474298   
C380     C      0.948380000000     0.265140000000     0.003390000000     0.469693   
C381     C      0.763400000000     0.194790000000     0.499320000000     0.477297   
C382     C      0.753010000000     0.314050000000     0.510910000000     0.472973   
C383     C      0.817800000000     0.257930000000     0.999370000000     0.478776   
C384     C      0.698310000000     0.248830000000     0.011360000000     0.469567   
C385     C      0.868750000000     0.235780000000     0.517590000000    -0.00698194 
C386     C      0.866760000000     0.270070000000     0.968520000000    -0.0188819  
C387     C      0.898130000000     0.253170000000     0.529250000000    -0.00822908 
C388     C      0.897580000000     0.287220000000     0.979450000000     0.0341593  
C389     C      0.647950000000     0.225140000000     0.492730000000    -0.00703013 
C390     C      0.649640000000     0.257850000000     0.542990000000    -0.0190559  
C391     C      0.616820000000     0.241200000000     0.982950000000    -0.0078324  
C392     C      0.619970000000     0.276390000000     0.032020000000     0.0344139  
C393     C      0.728630000000     0.364160000000     0.992290000000    -0.00054642 
C394     C      0.761010000000     0.363060000000     0.542570000000    -0.0192421  
C395     C      0.744420000000     0.395260000000     0.982320000000    -0.00842556 
C396     C      0.778090000000     0.394030000000     0.532670000000     0.0329698  
C397     C      0.733040000000     0.115950000000     0.490080000000    -0.00835994 
C398     C      0.781930000000     0.114030000000     0.525340000000    -0.0199776  
C399     C      0.746380000000     0.145570000000     0.973510000000    -0.00897691 
C400     C      0.794250000000     0.144380000000     0.009320000000     0.0290266  
C401     C      0.739810000000     0.020470000000     0.868290000000    -0.0106111  
C402     C      0.771670000000     0.469770000000     0.864970000000    -0.0199865  
C403     C      0.760680000000     0.031810000000     0.895680000000    -0.00493281 
C404     C      0.792290000000     0.481070000000     0.893630000000     0.0330273  
C405     C      0.762210000000     0.038470000000     0.613340000000    -0.00689755 
C406     C      0.714880000000     0.502550000000     0.611850000000    -0.0184346  
C407     C      0.771180000000     0.026470000000     0.646560000000    -0.0100054  
C408     C      0.724150000000     0.488210000000     0.644490000000     0.0342725  
C409     C      0.027340000000     0.268240000000     0.862080000000    -0.00872485 
C410     C      0.975590000000     0.238090000000     0.865920000000    -0.0153664  
C411     C      0.536240000000     0.257040000000     0.895670000000    -0.00903097 
C412     C      0.485780000000     0.224720000000     0.898590000000     0.0330138  
C413     C      0.021020000000     0.238470000000     0.641930000000    -0.0107183  
C414     C      0.969910000000     0.269830000000     0.643560000000    -0.0195342  
C415     C      0.533970000000     0.260530000000     0.616270000000    -0.00584246 
C416     C      0.482990000000     0.292070000000     0.617070000000     0.0326027  
C417     C      0.641240000000     0.028890000000     0.771820000000    -0.00885247 
C418     C      0.642000000000     0.474690000000     0.745650000000    -0.0200884  
C419     C      0.613730000000     0.018040000000     0.793400000000    -0.00930437 
C420     C      0.614040000000     0.464730000000     0.766820000000     0.0326262  
C421     C      0.862900000000     0.487130000000     0.727330000000    -0.00827008 
C422     C      0.861970000000     0.036180000000     0.761310000000    -0.0198578  
C423     C      0.895610000000     0.478280000000     0.741260000000    -0.010438   
C424     C      0.891910000000     0.025130000000     0.779140000000     0.0348979  
C425     C      0.971110000000     0.357320000000     0.778210000000    -0.0039687  
C426     C      0.530790000000     0.356390000000     0.776150000000    -0.017794   
C427     C      0.971310000000     0.391800000000     0.766720000000    -0.00697872 
C428     C      0.531100000000     0.391120000000     0.765130000000     0.0285551  
C429     C      0.973140000000     0.137970000000     0.758560000000    -0.00833275 
C430     C      0.524580000000     0.139850000000     0.727690000000    -0.0194626  
C431     C      0.986410000000     0.110810000000     0.778800000000    -0.00421602 
C432     C      0.536160000000     0.109900000000     0.745610000000     0.033023   
C433     C      0.007810000000     0.559580000000     0.262110000000     0.472919   
C434     C      0.001110000000     0.939930000000     0.271750000000     0.469767   
C435     C      0.943990000000     0.002810000000     0.260940000000     0.467828   
C436     C      0.563720000000     0.995900000000     0.273280000000     0.48311    
C437     C      0.499920000000     0.809040000000     0.260800000000     0.472223   
C438     C      0.499930000000     0.689150000000     0.248700000000     0.472477   
C439     C      0.002400000000     0.745570000000     0.314330000000     0.466501   
C440     C      0.997500000000     0.753850000000     0.193560000000     0.480147   
C441     C      0.812520000000     0.506560000000     0.251120000000     0.471771   
C442     C      0.692170000000     0.502060000000     0.259440000000     0.472599   
C443     C      0.747330000000     0.008280000000     0.195480000000     0.470932   
C444     C      0.756410000000     0.999500000000     0.315920000000     0.476809   
C445     C      0.748960000000     0.009230000000     0.064230000000     0.472907   
C446     C      0.768830000000     0.002510000000     0.445080000000     0.476124   
C447     C      0.758520000000     0.944950000000     0.508020000000     0.474636   
C448     C      0.759240000000     0.565050000000     0.502840000000     0.473319   
C449     C      0.506680000000     0.770410000000     0.065920000000     0.476358   
C450     C      0.508990000000     0.752140000000     0.446560000000     0.47554    
C451     C      0.568260000000     0.758060000000     0.508750000000     0.475206   
C452     C      0.948380000000     0.765140000000     0.503390000000     0.475163   
C453     C      0.763400000000     0.694790000000     0.999320000000     0.481954   
C454     C      0.753010000000     0.814050000000     0.010910000000     0.468541   
C455     C      0.817800000000     0.757930000000     0.499370000000     0.474004   
C456     C      0.698310000000     0.748830000000     0.511360000000     0.474322   
C457     C      0.868750000000     0.735780000000     0.017590000000    -0.00977682 
C458     C      0.866760000000     0.770060000000     0.468520000000    -0.0188831  
C459     C      0.898130000000     0.753180000000     0.029250000000    -0.00799466 
C460     C      0.897580000000     0.787220000000     0.479450000000     0.0319244  
C461     C      0.647950000000     0.725140000000     0.992730000000    -7.18293e-05
C462     C      0.649640000000     0.757850000000     0.042990000000    -0.0192656  
C463     C      0.616820000000     0.741200000000     0.482950000000    -0.00899996 
C464     C      0.619970000000     0.776390000000     0.532020000000     0.0344615  
C465     C      0.728630000000     0.864160000000     0.492290000000    -0.00739038 
C466     C      0.761010000000     0.863060000000     0.042570000000    -0.0193626  
C467     C      0.744420000000     0.895260000000     0.482320000000    -0.00977814 
C468     C      0.778090000000     0.894030000000     0.032670000000     0.0325049  
C469     C      0.733040000000     0.615950000000     0.990080000000    -0.000718726
C470     C      0.781930000000     0.614030000000     0.025340000000    -0.0185985  
C471     C      0.746380000000     0.645570000000     0.473510000000    -0.00731819 
C472     C      0.794250000000     0.644380000000     0.509320000000     0.0355313  
C473     C      0.739810000000     0.520460000000     0.368290000000    -0.00788579 
C474     C      0.771670000000     0.969770000000     0.364970000000    -0.0200726  
C475     C      0.760680000000     0.531810000000     0.395680000000    -0.00540448 
C476     C      0.792290000000     0.981070000000     0.393630000000     0.0355466  
C477     C      0.762210000000     0.538470000000     0.113340000000    -0.00642575 
C478     C      0.714880000000     0.002550000000     0.111850000000    -0.0264865  
C479     C      0.771180000000     0.526470000000     0.146560000000    -0.0101434  
C480     C      0.724150000000     0.988210000000     0.144490000000     0.0404251  
C481     C      0.027340000000     0.768240000000     0.362080000000    -0.00876856 
C482     C      0.975590000000     0.738090000000     0.365920000000    -0.0154268  
C483     C      0.536240000000     0.757040000000     0.395670000000    -0.00894981 
C484     C      0.485780000000     0.724710000000     0.398590000000     0.0333052  
C485     C      0.021020000000     0.738470000000     0.141930000000    -0.0107204  
C486     C      0.969910000000     0.769830000000     0.143560000000    -0.0195766  
C487     C      0.533970000000     0.760530000000     0.116270000000    -0.00586273 
C488     C      0.482990000000     0.792070000000     0.117060000000     0.0327299  
C489     C      0.641240000000     0.528890000000     0.271820000000    -0.0090063  
C490     C      0.642000000000     0.974690000000     0.245650000000    -0.0174093  
C491     C      0.613730000000     0.518040000000     0.293400000000    -0.00671761 
C492     C      0.614040000000     0.964720000000     0.266820000000     0.0322608  
C493     C      0.862900000000     0.987130000000     0.227320000000    -0.00640134 
C494     C      0.861970000000     0.536180000000     0.261310000000    -0.0194925  
C495     C      0.895610000000     0.978280000000     0.241260000000    -0.00815332 
C496     C      0.891910000000     0.525130000000     0.279140000000     0.0351271  
C497     C      0.971110000000     0.857320000000     0.278210000000    -0.00393681 
C498     C      0.530790000000     0.856390000000     0.276150000000    -0.0177732  
C499     C      0.971310000000     0.891800000000     0.266720000000    -0.00698893 
C500     C      0.531100000000     0.891120000000     0.265130000000     0.0285179  
C501     C      0.973140000000     0.637970000000     0.258560000000    -0.00835803 
C502     C      0.524580000000     0.639850000000     0.227690000000    -0.0193865  
C503     C      0.986410000000     0.610810000000     0.278800000000    -0.00414411 
C504     C      0.536160000000     0.609900000000     0.245610000000     0.0327962  
C505     C      0.007810000000     0.559580000000     0.762110000000     0.473216   
C506     C      0.001110000000     0.939930000000     0.771750000000     0.469772   
C507     C      0.943990000000     0.002810000000     0.760940000000     0.467815   
C508     C      0.563720000000     0.995900000000     0.773280000000     0.483088   
C509     C      0.499920000000     0.809040000000     0.760800000000     0.47222    
C510     C      0.499930000000     0.689150000000     0.748700000000     0.472478   
C511     C      0.002400000000     0.745570000000     0.814330000000     0.466527   
C512     C      0.997500000000     0.753850000000     0.693560000000     0.480135   
C513     C      0.812520000000     0.506560000000     0.751120000000     0.471773   
C514     C      0.692170000000     0.502060000000     0.759440000000     0.472601   
C515     C      0.747330000000     0.008280000000     0.695480000000     0.470924   
C516     C      0.756410000000     0.999500000000     0.815930000000     0.476719   
C517     C      0.748960000000     0.009230000000     0.564230000000     0.472568   
C518     C      0.768830000000     0.002510000000     0.945080000000     0.476227   
C519     C      0.758520000000     0.944950000000     0.008020000000     0.4746     
C520     C      0.759240000000     0.565050000000     0.002840000000     0.468928   
C521     C      0.506680000000     0.770410000000     0.565920000000     0.476697   
C522     C      0.508990000000     0.752140000000     0.946570000000     0.474703   
C523     C      0.568260000000     0.758060000000     0.008750000000     0.474272   
C524     C      0.948380000000     0.765140000000     0.003390000000     0.469678   
C525     C      0.763400000000     0.694790000000     0.499320000000     0.477287   
C526     C      0.753010000000     0.814050000000     0.510910000000     0.47298    
C527     C      0.817800000000     0.757930000000     0.999370000000     0.47877    
C528     C      0.698310000000     0.748830000000     0.011360000000     0.469571   
C529     C      0.868750000000     0.735780000000     0.517590000000    -0.00700255 
C530     C      0.866760000000     0.770060000000     0.968520000000    -0.0188267  
C531     C      0.898130000000     0.753180000000     0.529250000000    -0.00820746 
C532     C      0.897580000000     0.787220000000     0.979450000000     0.0340705  
C533     C      0.647950000000     0.725140000000     0.492730000000    -0.00704665 
C534     C      0.649640000000     0.757850000000     0.542990000000    -0.0190311  
C535     C      0.616820000000     0.741200000000     0.982950000000    -0.00780804 
C536     C      0.619970000000     0.776390000000     0.032020000000     0.0343205  
C537     C      0.728630000000     0.864160000000     0.992290000000    -0.000546654
C538     C      0.761010000000     0.863060000000     0.542570000000    -0.0191534  
C539     C      0.744420000000     0.895260000000     0.982320000000    -0.00847868 
C540     C      0.778090000000     0.894030000000     0.532670000000     0.0326541  
C541     C      0.733040000000     0.615950000000     0.490080000000    -0.00836045 
C542     C      0.781930000000     0.614030000000     0.525340000000    -0.0199669  
C543     C      0.746380000000     0.645570000000     0.973510000000    -0.00898261 
C544     C      0.794250000000     0.644380000000     0.009320000000     0.0289908  
C545     C      0.739810000000     0.520460000000     0.868290000000    -0.00788899 
C546     C      0.771670000000     0.969770000000     0.864970000000    -0.0199818  
C547     C      0.760680000000     0.531810000000     0.895680000000    -0.00536566 
C548     C      0.792290000000     0.981070000000     0.893630000000     0.0352544  
C549     C      0.762210000000     0.538470000000     0.613340000000    -0.00641398 
C550     C      0.714880000000     0.002550000000     0.611850000000    -0.0265822  
C551     C      0.771180000000     0.526470000000     0.646560000000    -0.010152   
C552     C      0.724150000000     0.988210000000     0.644490000000     0.0404275  
C553     C      0.027340000000     0.768240000000     0.862080000000    -0.00873201 
C554     C      0.975590000000     0.738090000000     0.865920000000    -0.0153279  
C555     C      0.536240000000     0.757040000000     0.895670000000    -0.00904497 
C556     C      0.485780000000     0.724710000000     0.898590000000     0.0329251  
C557     C      0.021020000000     0.738470000000     0.641930000000    -0.0107375  
C558     C      0.969910000000     0.769830000000     0.643560000000    -0.0195225  
C559     C      0.533970000000     0.760530000000     0.616270000000    -0.00584423 
C560     C      0.482990000000     0.792070000000     0.617070000000     0.0325397  
C561     C      0.641240000000     0.528890000000     0.771820000000    -0.00900156 
C562     C      0.642000000000     0.974690000000     0.745650000000    -0.0174215  
C563     C      0.613730000000     0.518040000000     0.793400000000    -0.00674171 
C564     C      0.614040000000     0.964720000000     0.766820000000     0.0322549  
C565     C      0.862900000000     0.987130000000     0.727330000000    -0.00630787 
C566     C      0.861970000000     0.536180000000     0.761310000000    -0.0194788  
C567     C      0.895610000000     0.978280000000     0.741260000000    -0.00820662 
C568     C      0.891910000000     0.525130000000     0.779140000000     0.0350621  
C569     C      0.971110000000     0.857320000000     0.778210000000    -0.00395976 
C570     C      0.530790000000     0.856390000000     0.776150000000    -0.0177863  
C571     C      0.971310000000     0.891800000000     0.766720000000    -0.0069889  
C572     C      0.531100000000     0.891120000000     0.765130000000     0.0285072  
C573     C      0.973140000000     0.637970000000     0.758560000000    -0.0083607  
C574     C      0.524580000000     0.639850000000     0.727690000000    -0.0194099  
C575     C      0.986410000000     0.610810000000     0.778800000000    -0.00415827 
C576     C      0.536160000000     0.609900000000     0.745610000000     0.0327737  
H1       H      0.372890000000     0.250310000000     0.451850000000     0.0423038  
H2       H      0.376590000000     0.214400000000     0.504050000000     0.0378647  
H3       H      0.412800000000     0.236680000000     0.043980000000     0.0384922  
H4       H      0.351170000000     0.287120000000     0.455440000000     0.0420991  
H5       H      0.390420000000     0.309280000000     0.992240000000     0.0332121  
H6       H      0.354930000000     0.227400000000     0.038660000000     0.040955   
H7       H      0.390320000000     0.272850000000     0.045220000000     0.0369858  
H8       H      0.142320000000     0.237490000000     0.058380000000     0.0420136  
H9       H      0.141910000000     0.202600000000     0.005230000000     0.0306803  
H10      H      0.101280000000     0.223510000000     0.470710000000     0.0339913  
H11      H      0.165410000000     0.273750000000     0.057300000000     0.0416694  
H12      H      0.128060000000     0.297670000000     0.518480000000     0.0324493  
H13      H      0.161800000000     0.218780000000     0.470950000000     0.0361803  
H14      H      0.122510000000     0.260030000000     0.465160000000     0.0348596  
H15      H      0.240150000000     0.368780000000     0.558040000000     0.0415703  
H16      H      0.206100000000     0.370040000000     0.505000000000     0.0357166  
H17      H      0.226820000000     0.409900000000     0.468900000000     0.0382581  
H18      H      0.277720000000     0.348040000000     0.056750000000     0.0435516  
H19      H      0.300670000000     0.387480000000     0.020410000000     0.0323281  
H20      H      0.222170000000     0.350400000000     0.470520000000     0.038903   
H21      H      0.264050000000     0.389520000000     0.965400000000     0.0374871  
H22      H      0.269160000000     0.120480000000     0.047800000000     0.040439   
H23      H      0.216460000000     0.123590000000     0.009380000000     0.034099   
H24      H      0.226200000000     0.160560000000     0.465050000000     0.0326151  
H25      H      0.302360000000     0.098570000000     0.032190000000     0.0420273  
H26      H      0.309540000000     0.136680000000     0.489000000000     0.0292464  
H27      H      0.219310000000     0.101760000000     0.472330000000     0.0353467  
H28      H      0.260510000000     0.137970000000     0.452310000000     0.0364829  
H29      H      0.252090000000     0.454220000000     0.373860000000     0.0417475  
H30      H      0.218450000000     0.008690000000     0.378670000000     0.0378325  
H31      H      0.246680000000     0.047820000000     0.411590000000     0.032796   
H32      H      0.286640000000     0.455550000000     0.348240000000     0.0423707  
H33      H      0.313570000000     0.493280000000     0.383610000000     0.0311191  
H34      H      0.231350000000     0.041360000000     0.354390000000     0.0386703  
H35      H      0.280600000000     0.045960000000     0.385410000000     0.0352371  
H36      H      0.198030000000     0.522720000000     0.115370000000     0.042058   
H37      H      0.247470000000     0.060240000000     0.116310000000     0.0341754  
H38      H      0.280680000000     0.046690000000     0.160860000000     0.0363299  
H39      H      0.202800000000     0.484120000000     0.097000000000     0.0419351  
H40      H      0.238000000000     0.466100000000     0.140050000000     0.0345692  
H41      H      0.284170000000     0.045510000000     0.100210000000     0.0368498  
H42      H      0.290930000000     0.009030000000     0.143860000000     0.0352747  
H43      H      0.460380000000     0.259550000000     0.369390000000     0.0441842  
H44      H      0.517080000000     0.292540000000     0.364010000000     0.0361078  
H45      H      0.050000000000     0.276110000000     0.407940000000     0.0357429  
H46      H      0.461180000000     0.219900000000     0.352970000000     0.0414548  
H47      H      0.998380000000     0.201820000000     0.394450000000     0.0329694  
H48      H      0.549420000000     0.270220000000     0.347490000000     0.0381155  
H49      H      0.052370000000     0.236200000000     0.393260000000     0.0330358  
H50      H      0.455340000000     0.250650000000     0.132440000000     0.0414099  
H51      H      0.509910000000     0.217680000000     0.129860000000     0.0381262  
H52      H      0.050710000000     0.247150000000     0.100580000000     0.0355449  
H53      H      0.454300000000     0.283610000000     0.160080000000     0.0415518  
H54      H      0.994600000000     0.312570000000     0.129170000000     0.032723   
H55      H      0.041040000000     0.229380000000     0.156760000000     0.0384117  
H56      H      0.047710000000     0.279750000000     0.128260000000     0.0369874  
H57      H      0.132460000000     0.982940000000     0.222230000000     0.0447651  
H58      H      0.131100000000     0.041580000000     0.250800000000     0.0393368  
H59      H      0.098430000000     0.038830000000     0.299370000000     0.0326463  
H60      H      0.157510000000     0.453770000000     0.240900000000     0.044643   
H61      H      0.124720000000     0.453750000000     0.288550000000     0.0306837  
H62      H      0.156330000000     0.045920000000     0.285420000000     0.0372171  
H63      H      0.123860000000     0.508360000000     0.315990000000     0.0364832  
H64      H      0.368830000000     0.051840000000     0.240930000000     0.0417832  
H65      H      0.366940000000     0.499600000000     0.204210000000     0.0340651  
H66      H      0.410770000000     0.468330000000     0.221820000000     0.0360938  
H67      H      0.346710000000     0.050220000000     0.277970000000     0.0436708  
H68      H      0.384380000000     0.010720000000     0.300140000000     0.0325671  
H69      H      0.349400000000     0.465040000000     0.221860000000     0.0383954  
H70      H      0.391970000000     0.458860000000     0.258950000000     0.0337192  
H71      H      0.034010000000     0.355500000000     0.302600000000     0.0393672  
H72      H      0.469590000000     0.357230000000     0.304790000000     0.037363   
H73      H      0.450860000000     0.404690000000     0.277700000000     0.0288832  
H74      H      0.051500000000     0.344040000000     0.265140000000     0.0439153  
H75      H      0.033310000000     0.391330000000     0.238570000000     0.035116   
H76      H      0.449340000000     0.345530000000     0.268780000000     0.0392454  
H77      H      0.467700000000     0.391980000000     0.240320000000     0.038328   
H78      H      0.013880000000     0.132580000000     0.204410000000     0.0395392  
H79      H      0.459330000000     0.127770000000     0.238290000000     0.0388673  
H80      H      0.466290000000     0.096190000000     0.287780000000     0.0374132  
H81      H      0.045210000000     0.155560000000     0.222130000000     0.0423798  
H82      H      0.051130000000     0.118400000000     0.265850000000     0.0276438  
H83      H      0.456720000000     0.152430000000     0.273570000000     0.03739    
H84      H      0.499070000000     0.120990000000     0.299840000000     0.0390272  
H85      H      0.372890000000     0.250310000000     0.951850000000     0.0428448  
H86      H      0.376590000000     0.214400000000     0.004060000000     0.0372431  
H87      H      0.412800000000     0.236680000000     0.543980000000     0.0386132  
H88      H      0.351170000000     0.287120000000     0.955440000000     0.042287   
H89      H      0.390420000000     0.309280000000     0.492240000000     0.0324019  
H90      H      0.354930000000     0.227400000000     0.538660000000     0.0407441  
H91      H      0.390320000000     0.272850000000     0.545230000000     0.0375794  
H92      H      0.142320000000     0.237490000000     0.558380000000     0.0421571  
H93      H      0.141910000000     0.202600000000     0.505230000000     0.0345638  
H94      H      0.101280000000     0.223510000000     0.970710000000     0.0349088  
H95      H      0.165410000000     0.273750000000     0.557300000000     0.0416752  
H96      H      0.128060000000     0.297670000000     0.018480000000     0.0316505  
H97      H      0.161800000000     0.218780000000     0.970940000000     0.0353672  
H98      H      0.122510000000     0.260030000000     0.965160000000     0.0355005  
H99      H      0.240150000000     0.368780000000     0.058040000000     0.0414487  
H100     H      0.206100000000     0.370040000000     0.005000000000     0.0319479  
H101     H      0.226820000000     0.409900000000     0.968900000000     0.0391014  
H102     H      0.277720000000     0.348040000000     0.556750000000     0.043645   
H103     H      0.300670000000     0.387480000000     0.520410000000     0.0332185  
H104     H      0.222170000000     0.350400000000     0.970520000000     0.0381644  
H105     H      0.264050000000     0.389520000000     0.465400000000     0.036959   
H106     H      0.269160000000     0.120480000000     0.547800000000     0.0409422  
H107     H      0.216460000000     0.123590000000     0.509380000000     0.0381947  
H108     H      0.226200000000     0.160560000000     0.965050000000     0.0335119  
H109     H      0.302360000000     0.098570000000     0.532190000000     0.0427019  
H110     H      0.309540000000     0.136680000000     0.989000000000     0.0332277  
H111     H      0.219310000000     0.101760000000     0.972330000000     0.0344642  
H112     H      0.260510000000     0.137970000000     0.952310000000     0.0371977  
H113     H      0.252090000000     0.454220000000     0.873860000000     0.0418293  
H114     H      0.218450000000     0.008690000000     0.878670000000     0.0379752  
H115     H      0.246680000000     0.047820000000     0.911590000000     0.0330396  
H116     H      0.286640000000     0.455550000000     0.848240000000     0.042379   
H117     H      0.313570000000     0.493280000000     0.883610000000     0.0313609  
H118     H      0.231350000000     0.041360000000     0.854390000000     0.0387311  
H119     H      0.280600000000     0.045960000000     0.885410000000     0.0354125  
H120     H      0.198030000000     0.522720000000     0.615370000000     0.0422785  
H121     H      0.247470000000     0.060240000000     0.616310000000     0.0342718  
H122     H      0.280680000000     0.046690000000     0.660860000000     0.0363464  
H123     H      0.202800000000     0.484120000000     0.597000000000     0.0421628  
H124     H      0.238000000000     0.466100000000     0.640050000000     0.0345885  
H125     H      0.284170000000     0.045510000000     0.600210000000     0.0369281  
H126     H      0.290930000000     0.009030000000     0.643860000000     0.0353043  
H127     H      0.460380000000     0.259550000000     0.869390000000     0.0442125  
H128     H      0.517080000000     0.292540000000     0.864010000000     0.0362349  
H129     H      0.050000000000     0.276110000000     0.907940000000     0.0361424  
H130     H      0.461180000000     0.219900000000     0.852970000000     0.0414782  
H131     H      0.998380000000     0.201820000000     0.894450000000     0.0332821  
H132     H      0.549420000000     0.270220000000     0.847490000000     0.038186   
H133     H      0.052370000000     0.236200000000     0.893260000000     0.0332912  
H134     H      0.455340000000     0.250650000000     0.632430000000     0.0414174  
H135     H      0.509910000000     0.217680000000     0.629860000000     0.0382144  
H136     H      0.050710000000     0.247150000000     0.600580000000     0.0355725  
H137     H      0.454300000000     0.283610000000     0.660080000000     0.0415469  
H138     H      0.994600000000     0.312570000000     0.629170000000     0.0328317  
H139     H      0.041040000000     0.229380000000     0.656760000000     0.0384468  
H140     H      0.047710000000     0.279750000000     0.628260000000     0.0370077  
H141     H      0.132460000000     0.982940000000     0.722230000000     0.0448027  
H142     H      0.131100000000     0.041580000000     0.750800000000     0.0393564  
H143     H      0.098430000000     0.038830000000     0.799370000000     0.0327376  
H144     H      0.157510000000     0.453770000000     0.740900000000     0.0446575  
H145     H      0.124720000000     0.453750000000     0.788550000000     0.0307501  
H146     H      0.156330000000     0.045920000000     0.785420000000     0.0372571  
H147     H      0.123860000000     0.508360000000     0.815990000000     0.0366189  
H148     H      0.368830000000     0.051840000000     0.740930000000     0.0417894  
H149     H      0.366940000000     0.499600000000     0.704210000000     0.034075   
H150     H      0.410770000000     0.468330000000     0.721820000000     0.0361455  
H151     H      0.346710000000     0.050220000000     0.777970000000     0.0436983  
H152     H      0.384380000000     0.010720000000     0.800140000000     0.0326716  
H153     H      0.349400000000     0.465040000000     0.721860000000     0.0383817  
H154     H      0.391970000000     0.458860000000     0.758950000000     0.0337583  
H155     H      0.034010000000     0.355500000000     0.802600000000     0.0394646  
H156     H      0.469590000000     0.357230000000     0.804790000000     0.0374572  
H157     H      0.450860000000     0.404690000000     0.777700000000     0.0289342  
H158     H      0.051500000000     0.344040000000     0.765140000000     0.0439361  
H159     H      0.033310000000     0.391330000000     0.738570000000     0.0351366  
H160     H      0.449340000000     0.345530000000     0.768780000000     0.0392655  
H161     H      0.467700000000     0.391980000000     0.740320000000     0.0383478  
H162     H      0.013880000000     0.132580000000     0.704410000000     0.0396031  
H163     H      0.459330000000     0.127770000000     0.738290000000     0.0388881  
H164     H      0.466290000000     0.096190000000     0.787780000000     0.0374711  
H165     H      0.045210000000     0.155560000000     0.722140000000     0.0424174  
H166     H      0.051130000000     0.118400000000     0.765850000000     0.0276855  
H167     H      0.456720000000     0.152430000000     0.773570000000     0.037422   
H168     H      0.499070000000     0.120990000000     0.799840000000     0.0391252  
H169     H      0.372890000000     0.750310000000     0.451850000000     0.0422975  
H170     H      0.376590000000     0.714400000000     0.504050000000     0.0379044  
H171     H      0.412800000000     0.736680000000     0.043980000000     0.0385161  
H172     H      0.351170000000     0.787120000000     0.455440000000     0.0421182  
H173     H      0.390420000000     0.809280000000     0.992240000000     0.0333325  
H174     H      0.354930000000     0.727400000000     0.038660000000     0.0409755  
H175     H      0.390320000000     0.772850000000     0.045220000000     0.0370141  
H176     H      0.142320000000     0.737490000000     0.058380000000     0.0420325  
H177     H      0.141910000000     0.702600000000     0.005230000000     0.0307425  
H178     H      0.101280000000     0.723510000000     0.470710000000     0.0340263  
H179     H      0.165410000000     0.773750000000     0.057300000000     0.0416863  
H180     H      0.128060000000     0.797670000000     0.518480000000     0.0325515  
H181     H      0.161800000000     0.718780000000     0.470950000000     0.0362043  
H182     H      0.122510000000     0.760030000000     0.465160000000     0.0348892  
H183     H      0.240150000000     0.868780000000     0.558040000000     0.0416452  
H184     H      0.206100000000     0.870040000000     0.505000000000     0.0358915  
H185     H      0.226820000000     0.909900000000     0.468900000000     0.038645   
H186     H      0.277720000000     0.848040000000     0.056750000000     0.0435627  
H187     H      0.300670000000     0.887480000000     0.020410000000     0.0325582  
H188     H      0.222170000000     0.850400000000     0.470520000000     0.0389913  
H189     H      0.264050000000     0.889520000000     0.965400000000     0.037658   
H190     H      0.269160000000     0.620480000000     0.047800000000     0.0404712  
H191     H      0.216460000000     0.623590000000     0.009380000000     0.0341725  
H192     H      0.226200000000     0.660560000000     0.465050000000     0.0326375  
H193     H      0.302360000000     0.598570000000     0.032190000000     0.0421481  
H194     H      0.309540000000     0.636680000000     0.489000000000     0.0293273  
H195     H      0.219310000000     0.601760000000     0.472330000000     0.0354371  
H196     H      0.260510000000     0.637970000000     0.452310000000     0.0365141  
H197     H      0.252090000000     0.954220000000     0.373860000000     0.0423613  
H198     H      0.218450000000     0.508690000000     0.378670000000     0.0382208  
H199     H      0.246680000000     0.547820000000     0.411590000000     0.032936   
H200     H      0.286640000000     0.955550000000     0.348240000000     0.0425667  
H201     H      0.313570000000     0.993280000000     0.383610000000     0.0319654  
H202     H      0.231350000000     0.541360000000     0.354390000000     0.0384125  
H203     H      0.280600000000     0.545960000000     0.385410000000     0.0358762  
H204     H      0.198030000000     0.022720000000     0.115370000000     0.042959   
H205     H      0.247470000000     0.560240000000     0.116310000000     0.0341245  
H206     H      0.280680000000     0.546690000000     0.160860000000     0.0365291  
H207     H      0.202800000000     0.984120000000     0.097000000000     0.0460309  
H208     H      0.238000000000     0.966100000000     0.140050000000     0.0340095  
H209     H      0.284170000000     0.545510000000     0.100210000000     0.0369642  
H210     H      0.290930000000     0.509030000000     0.143860000000     0.0362852  
H211     H      0.460380000000     0.759550000000     0.369390000000     0.0442014  
H212     H      0.517080000000     0.792540000000     0.364010000000     0.0361845  
H213     H      0.050000000000     0.776110000000     0.407940000000     0.035808   
H214     H      0.461180000000     0.719900000000     0.352970000000     0.0414611  
H215     H      0.998380000000     0.701820000000     0.394450000000     0.0330386  
H216     H      0.549420000000     0.770220000000     0.347490000000     0.0381444  
H217     H      0.052370000000     0.736210000000     0.393260000000     0.0330626  
H218     H      0.455340000000     0.750650000000     0.132440000000     0.0414282  
H219     H      0.509910000000     0.717680000000     0.129860000000     0.0381884  
H220     H      0.050710000000     0.747150000000     0.100580000000     0.0355697  
H221     H      0.454300000000     0.783610000000     0.160080000000     0.0415767  
H222     H      0.994600000000     0.812570000000     0.129170000000     0.0328205  
H223     H      0.041040000000     0.729380000000     0.156760000000     0.038434   
H224     H      0.047710000000     0.779750000000     0.128260000000     0.037022   
H225     H      0.132460000000     0.482940000000     0.222230000000     0.0443887  
H226     H      0.131100000000     0.541580000000     0.250800000000     0.040014   
H227     H      0.098430000000     0.538830000000     0.299370000000     0.0325418  
H228     H      0.157510000000     0.953770000000     0.240900000000     0.044393   
H229     H      0.124720000000     0.953750000000     0.288550000000     0.0314816  
H230     H      0.156330000000     0.545920000000     0.285420000000     0.0373298  
H231     H      0.123860000000     0.008360000000     0.315990000000     0.0360781  
H232     H      0.368830000000     0.551840000000     0.240930000000     0.0421409  
H233     H      0.366940000000     0.999600000000     0.204210000000     0.0350723  
H234     H      0.410770000000     0.968330000000     0.221820000000     0.0361606  
H235     H      0.346710000000     0.550220000000     0.277970000000     0.0437379  
H236     H      0.384380000000     0.510720000000     0.300140000000     0.0334004  
H237     H      0.349400000000     0.965040000000     0.221860000000     0.0384845  
H238     H      0.391970000000     0.958860000000     0.258950000000     0.0340336  
H239     H      0.034010000000     0.855500000000     0.302600000000     0.0394734  
H240     H      0.469590000000     0.857230000000     0.304790000000     0.0375034  
H241     H      0.450860000000     0.904690000000     0.277700000000     0.029202   
H242     H      0.051500000000     0.844040000000     0.265140000000     0.0439333  
H243     H      0.033310000000     0.891330000000     0.238570000000     0.035177   
H244     H      0.449340000000     0.845530000000     0.268780000000     0.0393001  
H245     H      0.467700000000     0.891980000000     0.240320000000     0.0384464  
H246     H      0.013880000000     0.632580000000     0.204410000000     0.0396742  
H247     H      0.459330000000     0.627770000000     0.238290000000     0.0390036  
H248     H      0.466290000000     0.596190000000     0.287780000000     0.0374831  
H249     H      0.045210000000     0.655560000000     0.222130000000     0.0423943  
H250     H      0.051130000000     0.618400000000     0.265850000000     0.0277362  
H251     H      0.456720000000     0.652430000000     0.273570000000     0.0374207  
H252     H      0.499070000000     0.620990000000     0.299840000000     0.0390716  
H253     H      0.372890000000     0.750310000000     0.951850000000     0.042838   
H254     H      0.376590000000     0.714400000000     0.004060000000     0.0372819  
H255     H      0.412800000000     0.736680000000     0.543980000000     0.0386371  
H256     H      0.351170000000     0.787120000000     0.955440000000     0.0423053  
H257     H      0.390420000000     0.809280000000     0.492240000000     0.0325253  
H258     H      0.354930000000     0.727400000000     0.538660000000     0.0407651  
H259     H      0.390320000000     0.772850000000     0.545230000000     0.0376068  
H260     H      0.142320000000     0.737490000000     0.558380000000     0.0421762  
H261     H      0.141910000000     0.702600000000     0.505230000000     0.0346245  
H262     H      0.101280000000     0.723510000000     0.970710000000     0.034943   
H263     H      0.165410000000     0.773750000000     0.557300000000     0.0416921  
H264     H      0.128060000000     0.797670000000     0.018480000000     0.031753   
H265     H      0.161800000000     0.718780000000     0.970940000000     0.0353918  
H266     H      0.122510000000     0.760030000000     0.965160000000     0.0355289  
H267     H      0.240150000000     0.868780000000     0.058040000000     0.0415237  
H268     H      0.206100000000     0.870040000000     0.005000000000     0.03213    
H269     H      0.226820000000     0.909900000000     0.968900000000     0.0394841  
H270     H      0.277720000000     0.848040000000     0.556750000000     0.0436561  
H271     H      0.300670000000     0.887480000000     0.520410000000     0.0334478  
H272     H      0.222170000000     0.850400000000     0.970520000000     0.0382541  
H273     H      0.264050000000     0.889520000000     0.465400000000     0.0371319  
H274     H      0.269160000000     0.620480000000     0.547800000000     0.0409743  
H275     H      0.216460000000     0.623590000000     0.509380000000     0.0382703  
H276     H      0.226200000000     0.660560000000     0.965050000000     0.0335342  
H277     H      0.302360000000     0.598570000000     0.532190000000     0.0428233  
H278     H      0.309540000000     0.636680000000     0.989000000000     0.0333084  
H279     H      0.219310000000     0.601760000000     0.972330000000     0.0345541  
H280     H      0.260510000000     0.637970000000     0.952310000000     0.0372291  
H281     H      0.252090000000     0.954220000000     0.873860000000     0.0424405  
H282     H      0.218450000000     0.508690000000     0.878670000000     0.038363   
H283     H      0.246680000000     0.547820000000     0.911590000000     0.0331795  
H284     H      0.286640000000     0.955550000000     0.848240000000     0.0425743  
H285     H      0.313570000000     0.993280000000     0.883610000000     0.0322036  
H286     H      0.231350000000     0.541360000000     0.854390000000     0.0384742  
H287     H      0.280600000000     0.545960000000     0.885410000000     0.0360498  
H288     H      0.198030000000     0.022720000000     0.615370000000     0.0431804  
H289     H      0.247470000000     0.560240000000     0.616310000000     0.0342208  
H290     H      0.280680000000     0.546690000000     0.660860000000     0.0365458  
H291     H      0.202800000000     0.984120000000     0.597000000000     0.0462634  
H292     H      0.238000000000     0.966100000000     0.640050000000     0.0340284  
H293     H      0.284170000000     0.545510000000     0.600210000000     0.0370428  
H294     H      0.290930000000     0.509030000000     0.643860000000     0.036316   
H295     H      0.460380000000     0.759550000000     0.869390000000     0.0442296  
H296     H      0.517080000000     0.792540000000     0.864010000000     0.036311   
H297     H      0.050000000000     0.776110000000     0.907940000000     0.0362067  
H298     H      0.461180000000     0.719900000000     0.852970000000     0.0414845  
H299     H      0.998380000000     0.701820000000     0.894450000000     0.0333511  
H300     H      0.549420000000     0.770220000000     0.847490000000     0.0382147  
H301     H      0.052370000000     0.736210000000     0.893260000000     0.0333176  
H302     H      0.455340000000     0.750650000000     0.632430000000     0.0414358  
H303     H      0.509910000000     0.717680000000     0.629860000000     0.0382768  
H304     H      0.050710000000     0.747150000000     0.600580000000     0.0355974  
H305     H      0.454300000000     0.783610000000     0.660080000000     0.0415718  
H306     H      0.994600000000     0.812570000000     0.629170000000     0.0329293  
H307     H      0.041040000000     0.729380000000     0.656760000000     0.0384692  
H308     H      0.047710000000     0.779750000000     0.628260000000     0.0370424  
H309     H      0.132460000000     0.482940000000     0.722230000000     0.0444264  
H310     H      0.131100000000     0.541580000000     0.750800000000     0.0400332  
H311     H      0.098430000000     0.538830000000     0.799370000000     0.0326332  
H312     H      0.157510000000     0.953770000000     0.740900000000     0.0444079  
H313     H      0.124720000000     0.953750000000     0.788550000000     0.0315462  
H314     H      0.156330000000     0.545920000000     0.785420000000     0.0373696  
H315     H      0.123860000000     0.008360000000     0.815990000000     0.0362143  
H316     H      0.368830000000     0.551840000000     0.740930000000     0.0421472  
H317     H      0.366940000000     0.999600000000     0.704210000000     0.0350818  
H318     H      0.410770000000     0.968330000000     0.721820000000     0.0362127  
H319     H      0.346710000000     0.550220000000     0.777970000000     0.0437652  
H320     H      0.384380000000     0.510720000000     0.800140000000     0.0335037  
H321     H      0.349400000000     0.965040000000     0.721860000000     0.038471   
H322     H      0.391970000000     0.958860000000     0.758950000000     0.0340721  
H323     H      0.034010000000     0.855500000000     0.802600000000     0.0395702  
H324     H      0.469590000000     0.857230000000     0.804790000000     0.0375969  
H325     H      0.450860000000     0.904690000000     0.777700000000     0.0292523  
H326     H      0.051500000000     0.844040000000     0.765140000000     0.0439541  
H327     H      0.033310000000     0.891330000000     0.738570000000     0.0351977  
H328     H      0.449340000000     0.845530000000     0.768780000000     0.0393201  
H329     H      0.467700000000     0.891980000000     0.740320000000     0.0384662  
H330     H      0.013880000000     0.632580000000     0.704410000000     0.0397384  
H331     H      0.459330000000     0.627770000000     0.738290000000     0.0390244  
H332     H      0.466290000000     0.596190000000     0.787780000000     0.0375408  
H333     H      0.045210000000     0.655560000000     0.722140000000     0.042432   
H334     H      0.051130000000     0.618400000000     0.765850000000     0.0277778  
H335     H      0.456720000000     0.652430000000     0.773570000000     0.0374528  
H336     H      0.499070000000     0.620990000000     0.799840000000     0.0391694  
H337     H      0.872890000000     0.250310000000     0.451850000000     0.0423437  
H338     H      0.876590000000     0.214400000000     0.504050000000     0.0380848  
H339     H      0.912800000000     0.236680000000     0.043980000000     0.0389892  
H340     H      0.851170000000     0.287120000000     0.455440000000     0.0421111  
H341     H      0.890420000000     0.309280000000     0.992240000000     0.0335306  
H342     H      0.854930000000     0.227400000000     0.038660000000     0.041052   
H343     H      0.890320000000     0.272850000000     0.045220000000     0.0371954  
H344     H      0.642320000000     0.237490000000     0.058380000000     0.0420516  
H345     H      0.641910000000     0.202600000000     0.005230000000     0.0308069  
H346     H      0.601280000000     0.223510000000     0.470710000000     0.0341499  
H347     H      0.665410000000     0.273750000000     0.057300000000     0.0416785  
H348     H      0.628060000000     0.297670000000     0.518480000000     0.0325573  
H349     H      0.661800000000     0.218780000000     0.470950000000     0.0362349  
H350     H      0.622510000000     0.260030000000     0.465160000000     0.0349063  
H351     H      0.740150000000     0.368780000000     0.558040000000     0.0415916  
H352     H      0.706100000000     0.370040000000     0.505000000000     0.0357866  
H353     H      0.726820000000     0.409900000000     0.468900000000     0.0383137  
H354     H      0.777710000000     0.348040000000     0.056750000000     0.0436077  
H355     H      0.800670000000     0.387480000000     0.020410000000     0.0324641  
H356     H      0.722170000000     0.350400000000     0.470520000000     0.0389335  
H357     H      0.764050000000     0.389520000000     0.965400000000     0.0375234  
H358     H      0.769160000000     0.120480000000     0.047800000000     0.040463   
H359     H      0.716460000000     0.123590000000     0.009380000000     0.0341571  
H360     H      0.726200000000     0.160560000000     0.465050000000     0.0326732  
H361     H      0.802360000000     0.098570000000     0.032190000000     0.0421665  
H362     H      0.809540000000     0.136680000000     0.489000000000     0.0293936  
H363     H      0.719310000000     0.101760000000     0.472330000000     0.035406   
H364     H      0.760510000000     0.137970000000     0.452310000000     0.0365401  
H365     H      0.752100000000     0.454220000000     0.373860000000     0.0417676  
H366     H      0.718450000000     0.008690000000     0.378670000000     0.0378908  
H367     H      0.746680000000     0.047820000000     0.411590000000     0.032839   
H368     H      0.786640000000     0.455550000000     0.348240000000     0.0424139  
H369     H      0.813570000000     0.493280000000     0.383610000000     0.0312847  
H370     H      0.731350000000     0.041360000000     0.354390000000     0.0387048  
H371     H      0.780600000000     0.045960000000     0.385410000000     0.0353016  
H372     H      0.698030000000     0.522720000000     0.115370000000     0.0421501  
H373     H      0.747470000000     0.060240000000     0.116310000000     0.0342054  
H374     H      0.780680000000     0.046690000000     0.160860000000     0.0364135  
H375     H      0.702800000000     0.484120000000     0.097000000000     0.0420279  
H376     H      0.738000000000     0.466100000000     0.140050000000     0.0345863  
H377     H      0.784170000000     0.045510000000     0.100210000000     0.0369528  
H378     H      0.790930000000     0.009030000000     0.143860000000     0.0353869  
H379     H      0.960380000000     0.259550000000     0.369390000000     0.0445362  
H380     H      0.017080000000     0.292540000000     0.364010000000     0.0350838  
H381     H      0.550000000000     0.276110000000     0.407940000000     0.0358465  
H382     H      0.961180000000     0.219900000000     0.352970000000     0.0413672  
H383     H      0.498380000000     0.201820000000     0.394450000000     0.0315586  
H384     H      0.049420000000     0.270220000000     0.347490000000     0.038081   
H385     H      0.552370000000     0.236200000000     0.393260000000     0.0335023  
H386     H      0.955340000000     0.250650000000     0.132440000000     0.0422872  
H387     H      0.009910000000     0.217680000000     0.129860000000     0.0374967  
H388     H      0.550710000000     0.247150000000     0.100580000000     0.0357213  
H389     H      0.954310000000     0.283610000000     0.160080000000     0.0417321  
H390     H      0.494600000000     0.312570000000     0.129170000000     0.0317296  
H391     H      0.541040000000     0.229380000000     0.156760000000     0.0381676  
H392     H      0.547710000000     0.279750000000     0.128260000000     0.0378833  
H393     H      0.632460000000     0.982940000000     0.222230000000     0.0448564  
H394     H      0.631100000000     0.041580000000     0.250800000000     0.0393665  
H395     H      0.598430000000     0.038830000000     0.299370000000     0.0328036  
H396     H      0.657510000000     0.453770000000     0.240900000000     0.0446713  
H397     H      0.624720000000     0.453750000000     0.288550000000     0.0307496  
H398     H      0.656330000000     0.045920000000     0.285420000000     0.0372648  
H399     H      0.623860000000     0.508360000000     0.315990000000     0.0366404  
H400     H      0.868820000000     0.051840000000     0.240930000000     0.0419497  
H401     H      0.866940000000     0.499600000000     0.204210000000     0.0343154  
H402     H      0.910770000000     0.468330000000     0.221820000000     0.0366121  
H403     H      0.846710000000     0.050220000000     0.277970000000     0.0436887  
H404     H      0.884380000000     0.010720000000     0.300140000000     0.0328077  
H405     H      0.849410000000     0.465040000000     0.221860000000     0.0384949  
H406     H      0.891970000000     0.458860000000     0.258950000000     0.0339598  
H407     H      0.534010000000     0.355500000000     0.302600000000     0.0402428  
H408     H      0.969590000000     0.357230000000     0.304790000000     0.0379366  
H409     H      0.950860000000     0.404690000000     0.277700000000     0.0290924  
H410     H      0.551500000000     0.344040000000     0.265140000000     0.0442285  
H411     H      0.533310000000     0.391330000000     0.238570000000     0.0357242  
H412     H      0.949340000000     0.345530000000     0.268780000000     0.0387537  
H413     H      0.967700000000     0.391980000000     0.240320000000     0.0392077  
H414     H      0.513880000000     0.132580000000     0.204410000000     0.0401676  
H415     H      0.959330000000     0.127770000000     0.238290000000     0.0399414  
H416     H      0.966290000000     0.096190000000     0.287780000000     0.0376134  
H417     H      0.545210000000     0.155560000000     0.222130000000     0.0421277  
H418     H      0.551130000000     0.118400000000     0.265850000000     0.0284456  
H419     H      0.956720000000     0.152430000000     0.273570000000     0.0376453  
H420     H      0.999070000000     0.120990000000     0.299840000000     0.0399956  
H421     H      0.872890000000     0.250310000000     0.951850000000     0.0428815  
H422     H      0.876590000000     0.214400000000     0.004060000000     0.0374648  
H423     H      0.912800000000     0.236680000000     0.543980000000     0.03911    
H424     H      0.851170000000     0.287120000000     0.955440000000     0.0422982  
H425     H      0.890420000000     0.309280000000     0.492240000000     0.0327263  
H426     H      0.854930000000     0.227400000000     0.538660000000     0.0408423  
H427     H      0.890320000000     0.272850000000     0.545230000000     0.0377861  
H428     H      0.642320000000     0.237490000000     0.558380000000     0.0421951  
H429     H      0.641910000000     0.202600000000     0.505230000000     0.0346879  
H430     H      0.601280000000     0.223510000000     0.970710000000     0.0350667  
H431     H      0.665410000000     0.273750000000     0.557300000000     0.0416843  
H432     H      0.628060000000     0.297670000000     0.018480000000     0.031758   
H433     H      0.661800000000     0.218780000000     0.970940000000     0.0354237  
H434     H      0.622510000000     0.260030000000     0.965160000000     0.035547   
H435     H      0.740150000000     0.368780000000     0.058040000000     0.0414701  
H436     H      0.706100000000     0.370040000000     0.005000000000     0.0320246  
H437     H      0.726820000000     0.409900000000     0.968900000000     0.0391556  
H438     H      0.777710000000     0.348040000000     0.556750000000     0.0437005  
H439     H      0.800670000000     0.387480000000     0.520410000000     0.033352   
H440     H      0.722170000000     0.350400000000     0.970520000000     0.0381967  
H441     H      0.764050000000     0.389520000000     0.465400000000     0.0369972  
H442     H      0.769160000000     0.120480000000     0.547800000000     0.0409647  
H443     H      0.716460000000     0.123590000000     0.509380000000     0.0382446  
H444     H      0.726200000000     0.160560000000     0.965050000000     0.0335687  
H445     H      0.802360000000     0.098570000000     0.532190000000     0.0428388  
H446     H      0.809540000000     0.136680000000     0.989000000000     0.0333597  
H447     H      0.719310000000     0.101760000000     0.972330000000     0.0345255  
H448     H      0.760510000000     0.137970000000     0.952310000000     0.0372527  
H449     H      0.752100000000     0.454220000000     0.873860000000     0.0418493  
H450     H      0.718450000000     0.008690000000     0.878670000000     0.0380333  
H451     H      0.746680000000     0.047820000000     0.911590000000     0.0330818  
H452     H      0.786640000000     0.455550000000     0.848240000000     0.042422   
H453     H      0.813570000000     0.493280000000     0.883610000000     0.0315247  
H454     H      0.731350000000     0.041360000000     0.854390000000     0.0387654  
H455     H      0.780600000000     0.045960000000     0.885410000000     0.0354759  
H456     H      0.698030000000     0.522720000000     0.615370000000     0.0423707  
H457     H      0.747470000000     0.060240000000     0.616310000000     0.0343017  
H458     H      0.780680000000     0.046690000000     0.660860000000     0.0364299  
H459     H      0.702800000000     0.484120000000     0.597000000000     0.0422558  
H460     H      0.738000000000     0.466100000000     0.640050000000     0.0346057  
H461     H      0.784170000000     0.045510000000     0.600210000000     0.0370309  
H462     H      0.790930000000     0.009030000000     0.643860000000     0.0354163  
H463     H      0.960380000000     0.259550000000     0.869390000000     0.0445626  
H464     H      0.017080000000     0.292540000000     0.864010000000     0.0352138  
H465     H      0.550000000000     0.276110000000     0.907940000000     0.0362458  
H466     H      0.961180000000     0.219900000000     0.852970000000     0.041391   
H467     H      0.498380000000     0.201820000000     0.894450000000     0.0318795  
H468     H      0.049420000000     0.270220000000     0.847490000000     0.0381517  
H469     H      0.552370000000     0.236200000000     0.893260000000     0.0337558  
H470     H      0.955340000000     0.250650000000     0.632430000000     0.0422948  
H471     H      0.009910000000     0.217680000000     0.629860000000     0.0375838  
H472     H      0.550710000000     0.247150000000     0.600580000000     0.0357488  
H473     H      0.954310000000     0.283610000000     0.660080000000     0.0417271  
H474     H      0.494600000000     0.312570000000     0.629170000000     0.0318402  
H475     H      0.541040000000     0.229380000000     0.656760000000     0.0382029  
H476     H      0.547710000000     0.279750000000     0.628260000000     0.0379032  
H477     H      0.632460000000     0.982940000000     0.722230000000     0.0448941  
H478     H      0.631100000000     0.041580000000     0.750800000000     0.0393862  
H479     H      0.598430000000     0.038830000000     0.799370000000     0.0328944  
H480     H      0.657510000000     0.453770000000     0.740900000000     0.0446858  
H481     H      0.624720000000     0.453750000000     0.788550000000     0.0308158  
H482     H      0.656330000000     0.045920000000     0.785420000000     0.0373046  
H483     H      0.623860000000     0.508360000000     0.815990000000     0.0367755  
H484     H      0.868820000000     0.051840000000     0.740930000000     0.0419557  
H485     H      0.866940000000     0.499600000000     0.704210000000     0.0343248  
H486     H      0.910770000000     0.468330000000     0.721820000000     0.0366628  
H487     H      0.846710000000     0.050220000000     0.777970000000     0.043716   
H488     H      0.884380000000     0.010720000000     0.800140000000     0.0329108  
H489     H      0.849410000000     0.465040000000     0.721860000000     0.0384811  
H490     H      0.891970000000     0.458860000000     0.758950000000     0.0339981  
H491     H      0.534010000000     0.355500000000     0.802600000000     0.0403379  
H492     H      0.969590000000     0.357230000000     0.804790000000     0.0380275  
H493     H      0.950860000000     0.404690000000     0.777700000000     0.0291425  
H494     H      0.551500000000     0.344040000000     0.765140000000     0.0442488  
H495     H      0.533310000000     0.391330000000     0.738570000000     0.0357446  
H496     H      0.949340000000     0.345530000000     0.768780000000     0.0387748  
H497     H      0.967700000000     0.391980000000     0.740320000000     0.039226   
H498     H      0.513880000000     0.132580000000     0.704410000000     0.0402322  
H499     H      0.959330000000     0.127770000000     0.738290000000     0.0399604  
H500     H      0.966290000000     0.096190000000     0.787780000000     0.0376699  
H501     H      0.545210000000     0.155560000000     0.722140000000     0.042166   
H502     H      0.551130000000     0.118400000000     0.765850000000     0.0284852  
H503     H      0.956720000000     0.152430000000     0.773570000000     0.0376764  
H504     H      0.999070000000     0.120990000000     0.799840000000     0.0400888  
H505     H      0.872890000000     0.750310000000     0.451850000000     0.0423376  
H506     H      0.876590000000     0.714400000000     0.504050000000     0.0381252  
H507     H      0.912800000000     0.736680000000     0.043980000000     0.0390142  
H508     H      0.851170000000     0.787120000000     0.455440000000     0.0421302  
H509     H      0.890420000000     0.809280000000     0.992240000000     0.0336506  
H510     H      0.854930000000     0.727400000000     0.038660000000     0.0410728  
H511     H      0.890320000000     0.772850000000     0.045220000000     0.0372238  
H512     H      0.642320000000     0.737490000000     0.058380000000     0.0420709  
H513     H      0.641910000000     0.702600000000     0.005230000000     0.0308699  
H514     H      0.601280000000     0.723510000000     0.470710000000     0.0341857  
H515     H      0.665410000000     0.773750000000     0.057300000000     0.0416954  
H516     H      0.628060000000     0.797670000000     0.518480000000     0.0326597  
H517     H      0.661800000000     0.718780000000     0.470950000000     0.0362593  
H518     H      0.622510000000     0.760030000000     0.465160000000     0.0349361  
H519     H      0.740150000000     0.868780000000     0.558040000000     0.0416667  
H520     H      0.706100000000     0.870040000000     0.505000000000     0.0359619  
H521     H      0.726820000000     0.909900000000     0.468900000000     0.0387016  
H522     H      0.777710000000     0.848040000000     0.056750000000     0.0436187  
H523     H      0.800670000000     0.887480000000     0.020410000000     0.032694   
H524     H      0.722170000000     0.850400000000     0.470520000000     0.039022   
H525     H      0.764050000000     0.889520000000     0.965400000000     0.0376946  
H526     H      0.769160000000     0.620480000000     0.047800000000     0.0404953  
H527     H      0.716460000000     0.623590000000     0.009380000000     0.0342313  
H528     H      0.726200000000     0.660560000000     0.465050000000     0.0326959  
H529     H      0.802360000000     0.598570000000     0.032190000000     0.0422879  
H530     H      0.809540000000     0.636680000000     0.489000000000     0.0294751  
H531     H      0.719310000000     0.601760000000     0.472330000000     0.0354972  
H532     H      0.760510000000     0.637970000000     0.452310000000     0.0365715  
H533     H      0.752100000000     0.954220000000     0.373860000000     0.042383   
H534     H      0.718450000000     0.508690000000     0.378670000000     0.038282   
H535     H      0.746680000000     0.547820000000     0.411590000000     0.0329797  
H536     H      0.786640000000     0.955550000000     0.348240000000     0.0426099  
H537     H      0.813570000000     0.993280000000     0.383610000000     0.0321301  
H538     H      0.731350000000     0.541360000000     0.354390000000     0.0384469  
H539     H      0.780600000000     0.545960000000     0.385410000000     0.0359423  
H540     H      0.698030000000     0.022720000000     0.115370000000     0.0430528  
H541     H      0.747470000000     0.560240000000     0.116310000000     0.0341544  
H542     H      0.780680000000     0.546690000000     0.160860000000     0.0366134  
H543     H      0.702800000000     0.984120000000     0.097000000000     0.0461355  
H544     H      0.738000000000     0.966100000000     0.140050000000     0.0340245  
H545     H      0.784170000000     0.545510000000     0.100210000000     0.0370678  
H546     H      0.790930000000     0.509030000000     0.143860000000     0.0364009  
H547     H      0.960380000000     0.759550000000     0.369390000000     0.0445532  
H548     H      0.017080000000     0.792540000000     0.364010000000     0.0351589  
H549     H      0.550000000000     0.776110000000     0.407940000000     0.0359118  
H550     H      0.961180000000     0.719900000000     0.352970000000     0.0413734  
H551     H      0.498380000000     0.701820000000     0.394450000000     0.0316246  
H552     H      0.049420000000     0.770220000000     0.347490000000     0.03811    
H553     H      0.552370000000     0.736210000000     0.393260000000     0.0335304  
H554     H      0.955340000000     0.750650000000     0.132440000000     0.0423075  
H555     H      0.009910000000     0.717680000000     0.129860000000     0.0375559  
H556     H      0.550710000000     0.747150000000     0.100580000000     0.0357467  
H557     H      0.954310000000     0.783610000000     0.160080000000     0.0417569  
H558     H      0.494600000000     0.812570000000     0.129170000000     0.0318279  
H559     H      0.541040000000     0.729380000000     0.156760000000     0.03819    
H560     H      0.547710000000     0.779750000000     0.128260000000     0.037919   
H561     H      0.632460000000     0.482940000000     0.222230000000     0.0444795  
H562     H      0.631100000000     0.541580000000     0.250800000000     0.0400472  
H563     H      0.598430000000     0.538830000000     0.299370000000     0.0326994  
H564     H      0.657510000000     0.953770000000     0.240900000000     0.0444203  
H565     H      0.624720000000     0.953750000000     0.288550000000     0.0315504  
H566     H      0.656330000000     0.545920000000     0.285420000000     0.0373782  
H567     H      0.623860000000     0.008360000000     0.315990000000     0.0362322  
H568     H      0.868820000000     0.551840000000     0.240930000000     0.0423082  
H569     H      0.866940000000     0.999600000000     0.204210000000     0.0353215  
H570     H      0.910770000000     0.968330000000     0.221820000000     0.0366779  
H571     H      0.846710000000     0.550220000000     0.277970000000     0.043756   
H572     H      0.884380000000     0.510720000000     0.300140000000     0.0336444  
H573     H      0.849410000000     0.965040000000     0.221860000000     0.0385833  
H574     H      0.891970000000     0.958860000000     0.258950000000     0.0342742  
H575     H      0.534010000000     0.855500000000     0.302600000000     0.0403498  
H576     H      0.969590000000     0.857230000000     0.304790000000     0.0380762  
H577     H      0.950860000000     0.904690000000     0.277700000000     0.0294106  
H578     H      0.551500000000     0.844040000000     0.265140000000     0.0442468  
H579     H      0.533310000000     0.891330000000     0.238570000000     0.0357857  
H580     H      0.949340000000     0.845530000000     0.268780000000     0.0388079  
H581     H      0.967700000000     0.891980000000     0.240320000000     0.0393254  
H582     H      0.513880000000     0.632580000000     0.204410000000     0.0403061  
H583     H      0.959330000000     0.627770000000     0.238290000000     0.0400822  
H584     H      0.966290000000     0.596190000000     0.287780000000     0.0376846  
H585     H      0.545210000000     0.655560000000     0.222130000000     0.0421412  
H586     H      0.551130000000     0.618400000000     0.265850000000     0.0285414  
H587     H      0.956720000000     0.652430000000     0.273570000000     0.0376771  
H588     H      0.999070000000     0.620990000000     0.299840000000     0.0400428  
H589     H      0.872890000000     0.750310000000     0.951850000000     0.042875   
H590     H      0.876590000000     0.714400000000     0.004060000000     0.0375043  
H591     H      0.912800000000     0.736680000000     0.543980000000     0.0391349  
H592     H      0.851170000000     0.787120000000     0.955440000000     0.0423165  
H593     H      0.890420000000     0.809280000000     0.492240000000     0.0328494  
H594     H      0.854930000000     0.727400000000     0.538660000000     0.0408636  
H595     H      0.890320000000     0.772850000000     0.545230000000     0.0378137  
H596     H      0.642320000000     0.737490000000     0.558380000000     0.0422145  
H597     H      0.641910000000     0.702600000000     0.505230000000     0.0347495  
H598     H      0.601280000000     0.723510000000     0.970710000000     0.0351018  
H599     H      0.665410000000     0.773750000000     0.557300000000     0.0417013  
H600     H      0.628060000000     0.797670000000     0.018480000000     0.0318607  
H601     H      0.661800000000     0.718780000000     0.970940000000     0.0354486  
H602     H      0.622510000000     0.760030000000     0.965160000000     0.0355754  
H603     H      0.740150000000     0.868780000000     0.058040000000     0.0415453  
H604     H      0.706100000000     0.870040000000     0.005000000000     0.0322072  
H605     H      0.726820000000     0.909900000000     0.968900000000     0.0395393  
H606     H      0.777710000000     0.848040000000     0.556750000000     0.0437115  
H607     H      0.800670000000     0.887480000000     0.520410000000     0.0335811  
H608     H      0.722170000000     0.850400000000     0.970520000000     0.0382867  
H609     H      0.764050000000     0.889520000000     0.465400000000     0.0371704  
H610     H      0.769160000000     0.620480000000     0.547800000000     0.040997   
H611     H      0.716460000000     0.623590000000     0.509380000000     0.0383209  
H612     H      0.726200000000     0.660560000000     0.965050000000     0.0335912  
H613     H      0.802360000000     0.598570000000     0.532190000000     0.0429609  
H614     H      0.809540000000     0.636680000000     0.989000000000     0.033441   
H615     H      0.719310000000     0.601760000000     0.972330000000     0.0346162  
H616     H      0.760510000000     0.637970000000     0.952310000000     0.0372843  
H617     H      0.752100000000     0.954220000000     0.873860000000     0.0424622  
H618     H      0.718450000000     0.508690000000     0.878670000000     0.0384239  
H619     H      0.746680000000     0.547820000000     0.911590000000     0.0332223  
H620     H      0.786640000000     0.955550000000     0.848240000000     0.0426174  
H621     H      0.813570000000     0.993280000000     0.883610000000     0.0323664  
H622     H      0.731350000000     0.541360000000     0.854390000000     0.0385084  
H623     H      0.780600000000     0.545960000000     0.885410000000     0.0361149  
H624     H      0.698030000000     0.022720000000     0.615370000000     0.0432742  
H625     H      0.747470000000     0.560240000000     0.616310000000     0.0342506  
H626     H      0.780680000000     0.546690000000     0.660860000000     0.03663    
H627     H      0.702800000000     0.984120000000     0.597000000000     0.046368   
H628     H      0.738000000000     0.966100000000     0.640050000000     0.0340435  
H629     H      0.784170000000     0.545510000000     0.600210000000     0.0371461  
H630     H      0.790930000000     0.509030000000     0.643860000000     0.0364314  
H631     H      0.960380000000     0.759550000000     0.869390000000     0.0445794  
H632     H      0.017080000000     0.792540000000     0.864010000000     0.0352883  
H633     H      0.550000000000     0.776110000000     0.907940000000     0.0363104  
H634     H      0.961180000000     0.719900000000     0.852970000000     0.0413972  
H635     H      0.498380000000     0.701820000000     0.894450000000     0.0319453  
H636     H      0.049420000000     0.770220000000     0.847490000000     0.0381803  
H637     H      0.552370000000     0.736210000000     0.893260000000     0.0337836  
H638     H      0.955340000000     0.750650000000     0.632430000000     0.0423152  
H639     H      0.009910000000     0.717680000000     0.629860000000     0.0376432  
H640     H      0.550710000000     0.747150000000     0.600580000000     0.0357743  
H641     H      0.954310000000     0.783610000000     0.660080000000     0.041752   
H642     H      0.494600000000     0.812570000000     0.629170000000     0.0319386  
H643     H      0.541040000000     0.729380000000     0.656760000000     0.0382254  
H644     H      0.547710000000     0.779750000000     0.628260000000     0.0379389  
H645     H      0.632460000000     0.482940000000     0.722230000000     0.0445173  
H646     H      0.631100000000     0.541580000000     0.750800000000     0.0400664  
H647     H      0.598430000000     0.538830000000     0.799370000000     0.0327903  
H648     H      0.657510000000     0.953770000000     0.740900000000     0.0444351  
H649     H      0.624720000000     0.953750000000     0.788550000000     0.0316147  
H650     H      0.656330000000     0.545920000000     0.785420000000     0.0374178  
H651     H      0.623860000000     0.008360000000     0.815990000000     0.0363678  
H652     H      0.868820000000     0.551840000000     0.740930000000     0.0423144  
H653     H      0.866940000000     0.999600000000     0.704210000000     0.0353307  
H654     H      0.910770000000     0.968330000000     0.721820000000     0.036729   
H655     H      0.846710000000     0.550220000000     0.777970000000     0.0437831  
H656     H      0.884380000000     0.510720000000     0.800140000000     0.0337462  
H657     H      0.849410000000     0.965040000000     0.721860000000     0.0385696  
H658     H      0.891970000000     0.958860000000     0.758950000000     0.0343119  
H659     H      0.534010000000     0.855500000000     0.802600000000     0.0404443  
H660     H      0.969590000000     0.857230000000     0.804790000000     0.0381663  
H661     H      0.950860000000     0.904690000000     0.777700000000     0.0294599  
H662     H      0.551500000000     0.844040000000     0.765140000000     0.0442671  
H663     H      0.533310000000     0.891330000000     0.738570000000     0.0358062  
H664     H      0.949340000000     0.845530000000     0.768780000000     0.0388289  
H665     H      0.967700000000     0.891980000000     0.740320000000     0.0393437  
H666     H      0.513880000000     0.632580000000     0.704410000000     0.0403709  
H667     H      0.959330000000     0.627770000000     0.738290000000     0.0401013  
H668     H      0.966290000000     0.596190000000     0.787780000000     0.037741   
H669     H      0.545210000000     0.655560000000     0.722140000000     0.0421796  
H670     H      0.551130000000     0.618400000000     0.765850000000     0.0285809  
H671     H      0.956720000000     0.652430000000     0.773570000000     0.0377083  
H672     H      0.999070000000     0.620990000000     0.799840000000     0.0401359  
N1       N      0.415880000000     0.266830000000     0.502150000000    -0.181316   
N2       N      0.350100000000     0.256330000000     0.496140000000    -0.178661   
N3       N      0.100600000000     0.256110000000     0.510400000000    -0.182341   
N4       N      0.166260000000     0.245270000000     0.514820000000    -0.17927    
N5       N      0.258050000000     0.412490000000     0.509880000000    -0.181359   
N6       N      0.249280000000     0.346160000000     0.014170000000    -0.180131   
N7       N      0.267170000000     0.162780000000     0.995900000000    -0.181186   
N8       N      0.259180000000     0.097400000000     0.504310000000    -0.178768   
N9       N      0.273970000000     0.504390000000     0.412920000000    -0.182948   
N10      N      0.257150000000     0.497200000000     0.348530000000    -0.178216   
N11      N      0.244470000000     0.510630000000     0.163030000000    -0.181518   
N12      N      0.243430000000     0.514660000000     0.095890000000    -0.178855   
N13      N      0.508130000000     0.247240000000     0.414280000000    -0.181832   
N14      N      0.503510000000     0.247400000000     0.346920000000    -0.178598   
N15      N      0.007570000000     0.274880000000     0.098210000000    -0.184671   
N16      N      0.496510000000     0.254880000000     0.160950000000    -0.178903   
N17      N      0.095760000000     0.493000000000     0.276950000000    -0.183295   
N18      N      0.159650000000     0.001200000000     0.260440000000    -0.178741   
N19      N      0.411630000000     0.504930000000     0.257730000000    -0.181323   
N20      N      0.344930000000     0.008530000000     0.248520000000    -0.179296   
N21      N      0.001520000000     0.407790000000     0.274300000000    -0.182932   
N22      N      0.000420000000     0.340700000000     0.268460000000    -0.183809   
N23      N      0.508890000000     0.091990000000     0.259540000000    -0.181497   
N24      N      0.999780000000     0.156810000000     0.245950000000    -0.176643   
N25      N      0.415880000000     0.266830000000     0.002150000000    -0.182493   
N26      N      0.350100000000     0.256330000000     0.996140000000    -0.177272   
N27      N      0.100600000000     0.256110000000     0.010400000000    -0.1837     
N28      N      0.166260000000     0.245270000000     0.014820000000    -0.180824   
N29      N      0.258050000000     0.412490000000     0.009880000000    -0.182914   
N30      N      0.249280000000     0.346160000000     0.514160000000    -0.178512   
N31      N      0.267170000000     0.162780000000     0.495900000000    -0.183232   
N32      N      0.259180000000     0.097400000000     0.004310000000    -0.1809     
N33      N      0.273970000000     0.504390000000     0.912920000000    -0.182789   
N34      N      0.257150000000     0.497200000000     0.848530000000    -0.178284   
N35      N      0.244470000000     0.510630000000     0.663030000000    -0.181517   
N36      N      0.243430000000     0.514660000000     0.595890000000    -0.178721   
N37      N      0.508130000000     0.247240000000     0.914280000000    -0.181416   
N38      N      0.503510000000     0.247400000000     0.846920000000    -0.178601   
N39      N      0.007570000000     0.274880000000     0.598210000000    -0.184686   
N40      N      0.496510000000     0.254880000000     0.660950000000    -0.178904   
N41      N      0.095760000000     0.493000000000     0.776950000000    -0.183265   
N42      N      0.159650000000     0.001200000000     0.760440000000    -0.178734   
N43      N      0.411630000000     0.504930000000     0.757730000000    -0.181295   
N44      N      0.344930000000     0.008530000000     0.748520000000    -0.179311   
N45      N      0.001520000000     0.407790000000     0.774300000000    -0.182894   
N46      N      0.000420000000     0.340700000000     0.768460000000    -0.183786   
N47      N      0.508890000000     0.091990000000     0.759540000000    -0.181533   
N48      N      0.999780000000     0.156810000000     0.745950000000    -0.176637   
N49      N      0.415880000000     0.766830000000     0.502150000000    -0.181297   
N50      N      0.350100000000     0.756330000000     0.496140000000    -0.178663   
N51      N      0.100600000000     0.756100000000     0.510400000000    -0.182305   
N52      N      0.166260000000     0.745270000000     0.514820000000    -0.179265   
N53      N      0.258050000000     0.912490000000     0.509880000000    -0.181069   
N54      N      0.249280000000     0.846160000000     0.014170000000    -0.180126   
N55      N      0.267170000000     0.662780000000     0.995900000000    -0.18118    
N56      N      0.259180000000     0.597400000000     0.504310000000    -0.178795   
N57      N      0.273970000000     0.004390000000     0.412920000000    -0.184665   
N58      N      0.257150000000     0.997200000000     0.348530000000    -0.17685    
N59      N      0.244470000000     0.010630000000     0.163030000000    -0.182935   
N60      N      0.243430000000     0.014670000000     0.095890000000    -0.178146   
N61      N      0.508130000000     0.747240000000     0.414280000000    -0.181852   
N62      N      0.503510000000     0.747400000000     0.346920000000    -0.178597   
N63      N      0.007570000000     0.774880000000     0.098210000000    -0.184647   
N64      N      0.496510000000     0.754880000000     0.160950000000    -0.1789     
N65      N      0.095760000000     0.993010000000     0.276950000000    -0.181958   
N66      N      0.159650000000     0.501200000000     0.260440000000    -0.177445   
N67      N      0.411630000000     0.004930000000     0.257730000000    -0.18241    
N68      N      0.344930000000     0.508520000000     0.248520000000    -0.178243   
N69      N      0.001520000000     0.907790000000     0.274300000000    -0.18279    
N70      N      0.000420000000     0.840700000000     0.268460000000    -0.183802   
N71      N      0.508890000000     0.591990000000     0.259540000000    -0.181363   
N72      N      0.999780000000     0.656810000000     0.245950000000    -0.176626   
N73      N      0.415880000000     0.766830000000     0.002150000000    -0.182472   
N74      N      0.350100000000     0.756330000000     0.996140000000    -0.177276   
N75      N      0.100600000000     0.756100000000     0.010400000000    -0.183663   
N76      N      0.166260000000     0.745270000000     0.014820000000    -0.180817   
N77      N      0.258050000000     0.912490000000     0.009880000000    -0.18262    
N78      N      0.249280000000     0.846160000000     0.514160000000    -0.178511   
N79      N      0.267170000000     0.662780000000     0.495900000000    -0.183227   
N80      N      0.259180000000     0.597400000000     0.004310000000    -0.180928   
N81      N      0.273970000000     0.004390000000     0.912920000000    -0.184501   
N82      N      0.257150000000     0.997200000000     0.848530000000    -0.176923   
N83      N      0.244470000000     0.010630000000     0.663030000000    -0.182935   
N84      N      0.243430000000     0.014670000000     0.595890000000    -0.178011   
N85      N      0.508130000000     0.747240000000     0.914280000000    -0.181436   
N86      N      0.503510000000     0.747400000000     0.846920000000    -0.178599   
N87      N      0.007570000000     0.774880000000     0.598210000000    -0.184661   
N88      N      0.496510000000     0.754880000000     0.660950000000    -0.1789     
N89      N      0.095760000000     0.993010000000     0.776950000000    -0.181931   
N90      N      0.159650000000     0.501200000000     0.760440000000    -0.177439   
N91      N      0.411630000000     0.004930000000     0.757730000000    -0.182382   
N92      N      0.344930000000     0.508520000000     0.748520000000    -0.178258   
N93      N      0.001520000000     0.907790000000     0.774300000000    -0.182752   
N94      N      0.000420000000     0.840700000000     0.768460000000    -0.18378    
N95      N      0.508890000000     0.591990000000     0.759540000000    -0.181399   
N96      N      0.999780000000     0.656810000000     0.745950000000    -0.176621   
N97      N      0.915880000000     0.266830000000     0.502150000000    -0.180935   
N98      N      0.850100000000     0.256330000000     0.496140000000    -0.178668   
N99      N      0.600600000000     0.256110000000     0.510400000000    -0.182366   
N100     N      0.666260000000     0.245270000000     0.514820000000    -0.179268   
N101     N      0.758050000000     0.412490000000     0.509880000000    -0.181272   
N102     N      0.749280000000     0.346160000000     0.014170000000    -0.180109   
N103     N      0.767170000000     0.162780000000     0.995900000000    -0.181169   
N104     N      0.759180000000     0.097400000000     0.504310000000    -0.178812   
N105     N      0.773970000000     0.504390000000     0.412920000000    -0.182905   
N106     N      0.757150000000     0.497200000000     0.348530000000    -0.178205   
N107     N      0.744460000000     0.510630000000     0.163030000000    -0.181497   
N108     N      0.743430000000     0.514660000000     0.095890000000    -0.178835   
N109     N      0.008130000000     0.247240000000     0.414280000000    -0.184004   
N110     N      0.003510000000     0.247400000000     0.346920000000    -0.18018    
N111     N      0.507570000000     0.274880000000     0.098210000000    -0.182289   
N112     N      0.996510000000     0.254880000000     0.160950000000    -0.177101   
N113     N      0.595760000000     0.493000000000     0.276950000000    -0.183351   
N114     N      0.659650000000     0.001200000000     0.260440000000    -0.178737   
N115     N      0.911640000000     0.504930000000     0.257730000000    -0.18105    
N116     N      0.844930000000     0.008530000000     0.248520000000    -0.179285   
N117     N      0.501520000000     0.407790000000     0.274300000000    -0.181657   
N118     N      0.500420000000     0.340700000000     0.268460000000    -0.178161   
N119     N      0.008890000000     0.091990000000     0.259540000000    -0.183919   
N120     N      0.499780000000     0.156810000000     0.245950000000    -0.178466   
N121     N      0.915880000000     0.266830000000     0.002150000000    -0.182107   
N122     N      0.850100000000     0.256330000000     0.996140000000    -0.177287   
N123     N      0.600600000000     0.256110000000     0.010400000000    -0.183725   
N124     N      0.666260000000     0.245270000000     0.014820000000    -0.18082    
N125     N      0.758050000000     0.412490000000     0.009880000000    -0.182822   
N126     N      0.749280000000     0.346160000000     0.514160000000    -0.178494   
N127     N      0.767170000000     0.162780000000     0.495900000000    -0.183208   
N128     N      0.759180000000     0.097400000000     0.004310000000    -0.180939   
N129     N      0.773970000000     0.504390000000     0.912920000000    -0.182747   
N130     N      0.757150000000     0.497200000000     0.848530000000    -0.178273   
N131     N      0.744460000000     0.510630000000     0.663030000000    -0.181495   
N132     N      0.743430000000     0.514660000000     0.595890000000    -0.1787     
N133     N      0.008130000000     0.247240000000     0.914280000000    -0.183579   
N134     N      0.003510000000     0.247400000000     0.846920000000    -0.180176   
N135     N      0.507570000000     0.274880000000     0.598210000000    -0.182304   
N136     N      0.996510000000     0.254880000000     0.660950000000    -0.177102   
N137     N      0.595760000000     0.493000000000     0.776950000000    -0.183321   
N138     N      0.659650000000     0.001200000000     0.760440000000    -0.17873    
N139     N      0.911640000000     0.504930000000     0.757730000000    -0.181024   
N140     N      0.844930000000     0.008530000000     0.748520000000    -0.179301   
N141     N      0.501520000000     0.407790000000     0.774300000000    -0.181621   
N142     N      0.500420000000     0.340700000000     0.768460000000    -0.17815    
N143     N      0.008890000000     0.091990000000     0.759540000000    -0.18395    
N144     N      0.499780000000     0.156810000000     0.745950000000    -0.178458   
N145     N      0.915880000000     0.766830000000     0.502150000000    -0.180914   
N146     N      0.850100000000     0.756330000000     0.496140000000    -0.17867    
N147     N      0.600600000000     0.756100000000     0.510400000000    -0.182329   
N148     N      0.666260000000     0.745270000000     0.514820000000    -0.179263   
N149     N      0.758050000000     0.912490000000     0.509880000000    -0.180981   
N150     N      0.749280000000     0.846160000000     0.014170000000    -0.180104   
N151     N      0.767170000000     0.662780000000     0.995900000000    -0.181163   
N152     N      0.759180000000     0.597400000000     0.504310000000    -0.17884    
N153     N      0.773970000000     0.004390000000     0.412920000000    -0.184627   
N154     N      0.757150000000     0.997200000000     0.348530000000    -0.176836   
N155     N      0.744460000000     0.010630000000     0.163030000000    -0.182918   
N156     N      0.743430000000     0.014670000000     0.095890000000    -0.178124   
N157     N      0.008130000000     0.747240000000     0.414280000000    -0.184028   
N158     N      0.003510000000     0.747400000000     0.346920000000    -0.180182   
N159     N      0.507570000000     0.774880000000     0.098210000000    -0.182261   
N160     N      0.996510000000     0.754880000000     0.160950000000    -0.177095   
N161     N      0.595760000000     0.993010000000     0.276950000000    -0.182009   
N162     N      0.659650000000     0.501200000000     0.260440000000    -0.177435   
N163     N      0.911640000000     0.004930000000     0.257730000000    -0.18214    
N164     N      0.844930000000     0.508520000000     0.248520000000    -0.178231   
N165     N      0.501520000000     0.907790000000     0.274300000000    -0.181513   
N166     N      0.500420000000     0.840700000000     0.268460000000    -0.17815    
N167     N      0.008890000000     0.591990000000     0.259540000000    -0.183797   
N168     N      0.499780000000     0.656810000000     0.245950000000    -0.178457   
N169     N      0.915880000000     0.766830000000     0.002150000000    -0.182086   
N170     N      0.850100000000     0.756330000000     0.996140000000    -0.177291   
N171     N      0.600600000000     0.756100000000     0.010400000000    -0.183687   
N172     N      0.666260000000     0.745270000000     0.014820000000    -0.180814   
N173     N      0.758050000000     0.912490000000     0.009880000000    -0.182529   
N174     N      0.749280000000     0.846160000000     0.514160000000    -0.178493   
N175     N      0.767170000000     0.662780000000     0.495900000000    -0.183203   
N176     N      0.759180000000     0.597400000000     0.004310000000    -0.180967   
N177     N      0.773970000000     0.004390000000     0.912920000000    -0.184463   
N178     N      0.757150000000     0.997200000000     0.848530000000    -0.176909   
N179     N      0.744460000000     0.010630000000     0.663030000000    -0.182919   
N180     N      0.743430000000     0.014670000000     0.595890000000    -0.177989   
N181     N      0.008130000000     0.747240000000     0.914280000000    -0.183603   
N182     N      0.003510000000     0.747400000000     0.846920000000    -0.180178   
N183     N      0.507570000000     0.774880000000     0.598210000000    -0.182276   
N184     N      0.996510000000     0.754880000000     0.660950000000    -0.177096   
N185     N      0.595760000000     0.993010000000     0.776950000000    -0.181981   
N186     N      0.659650000000     0.501200000000     0.760440000000    -0.177429   
N187     N      0.911640000000     0.004930000000     0.757730000000    -0.182113   
N188     N      0.844930000000     0.508520000000     0.748520000000    -0.178247   
N189     N      0.501520000000     0.907790000000     0.774300000000    -0.181477   
N190     N      0.500420000000     0.840700000000     0.768460000000    -0.17814    
N191     N      0.008890000000     0.591990000000     0.759540000000    -0.183828   
N192     N      0.499780000000     0.656810000000     0.745950000000    -0.178448   
O1       O      0.010530000000     0.042150000000     0.236970000000    -0.551996   
O2       O      0.503600000000     0.452470000000     0.243920000000    -0.559147   
O3       O      0.461530000000     0.999650000000     0.235890000000    -0.549197   
O4       O      0.051470000000     0.493410000000     0.245260000000    -0.550689   
O5       O      0.046300000000     0.001230000000     0.297960000000    -0.557439   
O6       O      0.456410000000     0.503960000000     0.288980000000    -0.55564    
O7       O      0.999590000000     0.457060000000     0.297170000000    -0.541844   
O8       O      0.502570000000     0.047060000000     0.289620000000    -0.555526   
O9       O      0.473310000000     0.293990000000     0.260180000000    -0.55586    
O10      O      0.473370000000     0.204180000000     0.250960000000    -0.556031   
O11      O      0.475240000000     0.244500000000     0.300220000000    -0.556751   
O12      O      0.471490000000     0.254160000000     0.209810000000    -0.553495   
O13      O      0.024590000000     0.251670000000     0.207600000000    -0.565043   
O14      O      0.028350000000     0.247020000000     0.298090000000    -0.557363   
O15      O      0.026550000000     0.204180000000     0.249150000000    -0.560638   
O16      O      0.026300000000     0.294170000000     0.256270000000    -0.563335   
O17      O      0.298360000000     0.479650000000     0.247840000000    -0.549771   
O18      O      0.208160000000     0.476010000000     0.257800000000    -0.550507   
O19      O      0.247610000000     0.480710000000     0.208540000000    -0.554054   
O20      O      0.258730000000     0.474350000000     0.298580000000    -0.551332   
O21      O      0.252500000000     0.026870000000     0.302950000000    -0.563249   
O22      O      0.250260000000     0.033650000000     0.212380000000    -0.555022   
O23      O      0.206420000000     0.029040000000     0.259560000000    -0.559255   
O24      O      0.296490000000     0.031920000000     0.256760000000    -0.561281   
O25      O      0.225350000000     0.005130000000     0.045060000000    -0.559336   
O26      O      0.240270000000     0.505390000000     0.455520000000    -0.560307   
O27      O      0.233010000000     0.459830000000     0.000060000000    -0.560727   
O28      O      0.232770000000     0.050080000000     0.499590000000    -0.55682    
O29      O      0.285630000000     0.049920000000     0.006050000000    -0.556383   
O30      O      0.284440000000     0.460130000000     0.513760000000    -0.552796   
O31      O      0.292570000000     0.000690000000     0.464450000000    -0.550037   
O32      O      0.277660000000     0.509910000000     0.053730000000    -0.555597   
O33      O      0.509490000000     0.242110000000     0.054880000000    -0.559815   
O34      O      0.003940000000     0.228750000000     0.465540000000    -0.559547   
O35      O      0.051780000000     0.232380000000     0.007940000000    -0.555965   
O36      O      0.461690000000     0.239010000000     0.512120000000    -0.556667   
O37      O      0.465210000000     0.289740000000     0.996830000000    -0.544208   
O38      O      0.054810000000     0.285440000000     0.507750000000    -0.551954   
O39      O      0.514720000000     0.280140000000     0.457520000000    -0.549994   
O40      O      0.005000000000     0.294470000000     0.047050000000    -0.545871   
O41      O      0.259660000000     0.211960000000     0.474230000000    -0.557772   
O42      O      0.249400000000     0.301080000000     0.483320000000    -0.555804   
O43      O      0.299960000000     0.261970000000     0.474620000000    -0.55057    
O44      O      0.210380000000     0.250360000000     0.483190000000    -0.55548    
O45      O      0.216040000000     0.250370000000     0.036370000000    -0.559502   
O46      O      0.305570000000     0.253520000000     0.027100000000    -0.566802   
O47      O      0.259490000000     0.297040000000     0.035620000000    -0.557092   
O48      O      0.263360000000     0.207220000000     0.027410000000    -0.557275   
O49      O      0.010530000000     0.042150000000     0.736970000000    -0.552037   
O50      O      0.503600000000     0.452470000000     0.743920000000    -0.559128   
O51      O      0.461530000000     0.999650000000     0.735890000000    -0.549164   
O52      O      0.051470000000     0.493410000000     0.745260000000    -0.550668   
O53      O      0.046300000000     0.001230000000     0.797960000000    -0.557355   
O54      O      0.456410000000     0.503960000000     0.788980000000    -0.555589   
O55      O      0.999590000000     0.457060000000     0.797170000000    -0.541778   
O56      O      0.502570000000     0.047060000000     0.789610000000    -0.555658   
O57      O      0.473310000000     0.293990000000     0.760180000000    -0.555855   
O58      O      0.473370000000     0.204180000000     0.750960000000    -0.556023   
O59      O      0.475240000000     0.244500000000     0.800220000000    -0.556739   
O60      O      0.471490000000     0.254160000000     0.709810000000    -0.553494   
O61      O      0.024590000000     0.251670000000     0.707600000000    -0.565038   
O62      O      0.028350000000     0.247020000000     0.798090000000    -0.557344   
O63      O      0.026550000000     0.204180000000     0.749150000000    -0.56062    
O64      O      0.026300000000     0.294170000000     0.756270000000    -0.563319   
O65      O      0.298360000000     0.479650000000     0.747840000000    -0.54977    
O66      O      0.208160000000     0.476010000000     0.757800000000    -0.550497   
O67      O      0.247610000000     0.480710000000     0.708540000000    -0.554059   
O68      O      0.258730000000     0.474350000000     0.798580000000    -0.551221   
O69      O      0.252500000000     0.026870000000     0.802950000000    -0.563145   
O70      O      0.250260000000     0.033650000000     0.712380000000    -0.555021   
O71      O      0.206420000000     0.029040000000     0.759560000000    -0.559248   
O72      O      0.296490000000     0.031920000000     0.756760000000    -0.561277   
O73      O      0.225350000000     0.005130000000     0.545060000000    -0.555825   
O74      O      0.240270000000     0.505390000000     0.955520000000    -0.56152    
O75      O      0.233010000000     0.459830000000     0.500060000000    -0.556351   
O76      O      0.232770000000     0.050080000000     0.999590000000    -0.554673   
O77      O      0.285630000000     0.049920000000     0.506050000000    -0.557551   
O78      O      0.284440000000     0.460130000000     0.013760000000    -0.552388   
O79      O      0.292570000000     0.000690000000     0.964450000000    -0.546529   
O80      O      0.277660000000     0.509910000000     0.553730000000    -0.55673    
O81      O      0.509490000000     0.242110000000     0.554880000000    -0.560449   
O82      O      0.003940000000     0.228750000000     0.965540000000    -0.556567   
O83      O      0.051780000000     0.232380000000     0.507940000000    -0.555519   
O84      O      0.461690000000     0.239010000000     0.012120000000    -0.555704   
O85      O      0.465210000000     0.289740000000     0.496830000000    -0.550845   
O86      O      0.054810000000     0.285440000000     0.007750000000    -0.551257   
O87      O      0.514720000000     0.280140000000     0.957520000000    -0.546564   
O88      O      0.005000000000     0.294470000000     0.547040000000    -0.546988   
O89      O      0.259660000000     0.211960000000     0.974230000000    -0.558783   
O90      O      0.249400000000     0.301080000000     0.983320000000    -0.552837   
O91      O      0.299960000000     0.261970000000     0.974620000000    -0.551516   
O92      O      0.210380000000     0.250360000000     0.983180000000    -0.552383   
O93      O      0.216040000000     0.250370000000     0.536370000000    -0.560605   
O94      O      0.305570000000     0.253520000000     0.527100000000    -0.563901   
O95      O      0.259490000000     0.297040000000     0.535620000000    -0.55807    
O96      O      0.263360000000     0.207220000000     0.527410000000    -0.554493   
O97      O      0.010530000000     0.542150000000     0.236970000000    -0.548947   
O98      O      0.503600000000     0.952470000000     0.243920000000    -0.560059   
O99      O      0.461530000000     0.499650000000     0.235890000000    -0.551877   
O100     O      0.051470000000     0.993410000000     0.245260000000    -0.551784   
O101     O      0.046300000000     0.501230000000     0.297960000000    -0.554889   
O102     O      0.456410000000     0.003960000000     0.288980000000    -0.554479   
O103     O      0.999590000000     0.957060000000     0.297170000000    -0.538761   
O104     O      0.502570000000     0.547060000000     0.289620000000    -0.556406   
O105     O      0.473310000000     0.793990000000     0.260180000000    -0.555844   
O106     O      0.473370000000     0.704180000000     0.250960000000    -0.556023   
O107     O      0.475240000000     0.744500000000     0.300220000000    -0.556748   
O108     O      0.471490000000     0.754160000000     0.209810000000    -0.553489   
O109     O      0.024590000000     0.751680000000     0.207600000000    -0.565045   
O110     O      0.028350000000     0.747020000000     0.298090000000    -0.557355   
O111     O      0.026550000000     0.704180000000     0.249150000000    -0.560659   
O112     O      0.026300000000     0.794170000000     0.256270000000    -0.563314   
O113     O      0.298360000000     0.979650000000     0.247840000000    -0.546797   
O114     O      0.208160000000     0.976010000000     0.257800000000    -0.547679   
O115     O      0.247610000000     0.980710000000     0.208540000000    -0.551261   
O116     O      0.258730000000     0.974350000000     0.298580000000    -0.552065   
O117     O      0.252500000000     0.526870000000     0.302950000000    -0.560686   
O118     O      0.250260000000     0.533650000000     0.212380000000    -0.556074   
O119     O      0.206420000000     0.529040000000     0.259560000000    -0.560347   
O120     O      0.296490000000     0.531920000000     0.256760000000    -0.562369   
O121     O      0.225350000000     0.505130000000     0.045060000000    -0.558974   
O122     O      0.240270000000     0.005390000000     0.455520000000    -0.560469   
O123     O      0.233010000000     0.959840000000     0.000060000000    -0.557959   
O124     O      0.232770000000     0.550080000000     0.499590000000    -0.557416   
O125     O      0.285630000000     0.549920000000     0.006050000000    -0.557015   
O126     O      0.284440000000     0.960130000000     0.513760000000    -0.54989    
O127     O      0.292570000000     0.500690000000     0.464450000000    -0.549459   
O128     O      0.277660000000     0.009910000000     0.053730000000    -0.555607   
O129     O      0.509490000000     0.742110000000     0.054880000000    -0.55979    
O130     O      0.003940000000     0.728750000000     0.465540000000    -0.559594   
O131     O      0.051780000000     0.732380000000     0.007940000000    -0.555916   
O132     O      0.461690000000     0.739010000000     0.512120000000    -0.556644   
O133     O      0.465210000000     0.789740000000     0.996830000000    -0.544166   
O134     O      0.054810000000     0.785440000000     0.507750000000    -0.551899   
O135     O      0.514720000000     0.780130000000     0.457520000000    -0.550116   
O136     O      0.005000000000     0.794470000000     0.047050000000    -0.54581    
O137     O      0.259660000000     0.711960000000     0.474230000000    -0.557772   
O138     O      0.249400000000     0.801080000000     0.483320000000    -0.555783   
O139     O      0.299960000000     0.761970000000     0.474620000000    -0.550563   
O140     O      0.210380000000     0.750360000000     0.483190000000    -0.555471   
O141     O      0.216040000000     0.750370000000     0.036370000000    -0.559496   
O142     O      0.305570000000     0.753520000000     0.027100000000    -0.566795   
O143     O      0.259490000000     0.797040000000     0.035620000000    -0.557082   
O144     O      0.263360000000     0.707220000000     0.027410000000    -0.557272   
O145     O      0.010530000000     0.542150000000     0.736970000000    -0.548991   
O146     O      0.503600000000     0.952470000000     0.743920000000    -0.560039   
O147     O      0.461530000000     0.499650000000     0.735890000000    -0.551841   
O148     O      0.051470000000     0.993410000000     0.745260000000    -0.55176    
O149     O      0.046300000000     0.501230000000     0.797960000000    -0.55481    
O150     O      0.456410000000     0.003960000000     0.788980000000    -0.554429   
O151     O      0.999590000000     0.957060000000     0.797170000000    -0.5387     
O152     O      0.502570000000     0.547060000000     0.789610000000    -0.556536   
O153     O      0.473310000000     0.793990000000     0.760180000000    -0.555839   
O154     O      0.473370000000     0.704180000000     0.750960000000    -0.556015   
O155     O      0.475240000000     0.744500000000     0.800220000000    -0.556735   
O156     O      0.471490000000     0.754160000000     0.709810000000    -0.553488   
O157     O      0.024590000000     0.751680000000     0.707600000000    -0.56504    
O158     O      0.028350000000     0.747020000000     0.798090000000    -0.557336   
O159     O      0.026550000000     0.704180000000     0.749150000000    -0.560641   
O160     O      0.026300000000     0.794170000000     0.756270000000    -0.563298   
O161     O      0.298360000000     0.979650000000     0.747840000000    -0.546798   
O162     O      0.208160000000     0.976010000000     0.757800000000    -0.547673   
O163     O      0.247610000000     0.980710000000     0.708540000000    -0.551266   
O164     O      0.258730000000     0.974350000000     0.798580000000    -0.55195    
O165     O      0.252500000000     0.526870000000     0.802950000000    -0.560589   
O166     O      0.250260000000     0.533650000000     0.712380000000    -0.556072   
O167     O      0.206420000000     0.529040000000     0.759560000000    -0.560339   
O168     O      0.296490000000     0.531920000000     0.756760000000    -0.562364   
O169     O      0.225350000000     0.505130000000     0.545060000000    -0.555458   
O170     O      0.240270000000     0.005390000000     0.955520000000    -0.561681   
O171     O      0.233010000000     0.959840000000     0.500060000000    -0.553578   
O172     O      0.232770000000     0.550080000000     0.999590000000    -0.555266   
O173     O      0.285630000000     0.549920000000     0.506050000000    -0.558187   
O174     O      0.284440000000     0.960130000000     0.013760000000    -0.54949    
O175     O      0.292570000000     0.500690000000     0.964450000000    -0.545948   
O176     O      0.277660000000     0.009910000000     0.553730000000    -0.556738   
O177     O      0.509490000000     0.742110000000     0.554880000000    -0.560424   
O178     O      0.003940000000     0.728750000000     0.965540000000    -0.556617   
O179     O      0.051780000000     0.732380000000     0.507940000000    -0.55547    
O180     O      0.461690000000     0.739010000000     0.012120000000    -0.555683   
O181     O      0.465210000000     0.789740000000     0.496830000000    -0.550793   
O182     O      0.054810000000     0.785440000000     0.007750000000    -0.551204   
O183     O      0.514720000000     0.780130000000     0.957520000000    -0.546691   
O184     O      0.005000000000     0.794470000000     0.547040000000    -0.546926   
O185     O      0.259660000000     0.711960000000     0.974230000000    -0.558782   
O186     O      0.249400000000     0.801080000000     0.983320000000    -0.552821   
O187     O      0.299960000000     0.761970000000     0.974620000000    -0.551508   
O188     O      0.210380000000     0.750360000000     0.983180000000    -0.552377   
O189     O      0.216040000000     0.750370000000     0.536370000000    -0.560599   
O190     O      0.305570000000     0.753520000000     0.527100000000    -0.563897   
O191     O      0.259490000000     0.797040000000     0.535620000000    -0.558059   
O192     O      0.263360000000     0.707220000000     0.527410000000    -0.554491   
O193     O      0.510530000000     0.042150000000     0.236970000000    -0.551916   
O194     O      0.003600000000     0.452470000000     0.243920000000    -0.558264   
O195     O      0.961530000000     0.999650000000     0.235890000000    -0.545113   
O196     O      0.551470000000     0.493410000000     0.245260000000    -0.551548   
O197     O      0.546300000000     0.001230000000     0.297960000000    -0.55863    
O198     O      0.956410000000     0.503960000000     0.288980000000    -0.55097    
O199     O      0.499590000000     0.457060000000     0.297170000000    -0.550845   
O200     O      0.002570000000     0.047060000000     0.289620000000    -0.5554     
O201     O      0.973310000000     0.293990000000     0.260180000000    -0.558129   
O202     O      0.973370000000     0.204180000000     0.250960000000    -0.557564   
O203     O      0.975240000000     0.244500000000     0.300220000000    -0.553249   
O204     O      0.971490000000     0.254160000000     0.209810000000    -0.554985   
O205     O      0.524590000000     0.251670000000     0.207600000000    -0.561015   
O206     O      0.528350000000     0.247020000000     0.298090000000    -0.558371   
O207     O      0.526550000000     0.204180000000     0.249150000000    -0.556571   
O208     O      0.526300000000     0.294170000000     0.256270000000    -0.558321   
O209     O      0.798370000000     0.479650000000     0.247840000000    -0.549618   
O210     O      0.708160000000     0.476010000000     0.257800000000    -0.550454   
O211     O      0.747610000000     0.480710000000     0.208540000000    -0.55401    
O212     O      0.758730000000     0.474350000000     0.298580000000    -0.551284   
O213     O      0.752500000000     0.026870000000     0.302950000000    -0.563251   
O214     O      0.750260000000     0.033650000000     0.212380000000    -0.555011   
O215     O      0.706420000000     0.029040000000     0.259560000000    -0.559248   
O216     O      0.796490000000     0.031920000000     0.256760000000    -0.561293   
O217     O      0.725350000000     0.005130000000     0.045060000000    -0.559267   
O218     O      0.740270000000     0.505390000000     0.455520000000    -0.56027    
O219     O      0.733000000000     0.459830000000     0.000060000000    -0.560487   
O220     O      0.732780000000     0.050080000000     0.499590000000    -0.556956   
O221     O      0.785630000000     0.049920000000     0.006050000000    -0.556375   
O222     O      0.784440000000     0.460130000000     0.513760000000    -0.552662   
O223     O      0.792570000000     0.000690000000     0.464450000000    -0.549936   
O224     O      0.777660000000     0.509910000000     0.053730000000    -0.555544   
O225     O      0.009490000000     0.242110000000     0.054880000000    -0.559958   
O226     O      0.503940000000     0.228750000000     0.465540000000    -0.558632   
O227     O      0.551780000000     0.232380000000     0.007940000000    -0.556812   
O228     O      0.961690000000     0.239010000000     0.512120000000    -0.552715   
O229     O      0.965210000000     0.289740000000     0.996830000000    -0.540289   
O230     O      0.554810000000     0.285440000000     0.507750000000    -0.552851   
O231     O      0.014730000000     0.280140000000     0.457520000000    -0.55007    
O232     O      0.505000000000     0.294470000000     0.047050000000    -0.545019   
O233     O      0.759660000000     0.211960000000     0.474230000000    -0.557797   
O234     O      0.749400000000     0.301080000000     0.483320000000    -0.555817   
O235     O      0.799960000000     0.261970000000     0.474620000000    -0.550607   
O236     O      0.710390000000     0.250360000000     0.483190000000    -0.555623   
O237     O      0.716040000000     0.250370000000     0.036370000000    -0.559491   
O238     O      0.805570000000     0.253520000000     0.027100000000    -0.566757   
O239     O      0.759500000000     0.297040000000     0.035620000000    -0.557042   
O240     O      0.763360000000     0.207220000000     0.027410000000    -0.557259   
O241     O      0.510530000000     0.042150000000     0.736970000000    -0.551957   
O242     O      0.003600000000     0.452470000000     0.743920000000    -0.558249   
O243     O      0.961530000000     0.999650000000     0.735890000000    -0.545087   
O244     O      0.551470000000     0.493410000000     0.745260000000    -0.551526   
O245     O      0.546300000000     0.001230000000     0.797960000000    -0.558543   
O246     O      0.956410000000     0.503960000000     0.788980000000    -0.550932   
O247     O      0.499590000000     0.457060000000     0.797170000000    -0.550753   
O248     O      0.002570000000     0.047060000000     0.789610000000    -0.555532   
O249     O      0.973310000000     0.293990000000     0.760180000000    -0.558119   
O250     O      0.973370000000     0.204180000000     0.750960000000    -0.557552   
O251     O      0.975240000000     0.244500000000     0.800220000000    -0.553248   
O252     O      0.971490000000     0.254160000000     0.709810000000    -0.554981   
O253     O      0.524590000000     0.251670000000     0.707600000000    -0.561016   
O254     O      0.528350000000     0.247020000000     0.798090000000    -0.55835    
O255     O      0.526550000000     0.204180000000     0.749150000000    -0.556561   
O256     O      0.526300000000     0.294170000000     0.756270000000    -0.558316   
O257     O      0.798370000000     0.479650000000     0.747840000000    -0.549616   
O258     O      0.708160000000     0.476010000000     0.757800000000    -0.550445   
O259     O      0.747610000000     0.480710000000     0.708540000000    -0.554015   
O260     O      0.758730000000     0.474350000000     0.798580000000    -0.551173   
O261     O      0.752500000000     0.026870000000     0.802950000000    -0.563148   
O262     O      0.750260000000     0.033650000000     0.712380000000    -0.555009   
O263     O      0.706420000000     0.029040000000     0.759560000000    -0.559241   
O264     O      0.796490000000     0.031920000000     0.756760000000    -0.56129    
O265     O      0.725350000000     0.005130000000     0.545060000000    -0.555764   
O266     O      0.740270000000     0.505390000000     0.955520000000    -0.56148    
O267     O      0.733000000000     0.459830000000     0.500060000000    -0.55612    
O268     O      0.732780000000     0.050080000000     0.999590000000    -0.554813   
O269     O      0.785630000000     0.049920000000     0.506050000000    -0.557541   
O270     O      0.784440000000     0.460130000000     0.013760000000    -0.552254   
O271     O      0.792570000000     0.000690000000     0.964450000000    -0.54644    
O272     O      0.777660000000     0.509910000000     0.553730000000    -0.556675   
O273     O      0.009490000000     0.242110000000     0.554880000000    -0.56059    
O274     O      0.503940000000     0.228750000000     0.965540000000    -0.555654   
O275     O      0.551780000000     0.232380000000     0.507940000000    -0.556368   
O276     O      0.961690000000     0.239010000000     0.012120000000    -0.551764   
O277     O      0.965210000000     0.289740000000     0.496830000000    -0.546872   
O278     O      0.554810000000     0.285440000000     0.007750000000    -0.552146   
O279     O      0.014730000000     0.280140000000     0.957520000000    -0.546646   
O280     O      0.505000000000     0.294470000000     0.547040000000    -0.546141   
O281     O      0.759660000000     0.211960000000     0.974230000000    -0.558805   
O282     O      0.749400000000     0.301080000000     0.983320000000    -0.552858   
O283     O      0.799960000000     0.261970000000     0.974620000000    -0.55155    
O284     O      0.710390000000     0.250360000000     0.983180000000    -0.552532   
O285     O      0.716040000000     0.250370000000     0.536370000000    -0.560593   
O286     O      0.805570000000     0.253520000000     0.527100000000    -0.563867   
O287     O      0.759500000000     0.297040000000     0.535620000000    -0.558018   
O288     O      0.763360000000     0.207220000000     0.527410000000    -0.554485   
O289     O      0.510530000000     0.542150000000     0.236970000000    -0.548845   
O290     O      0.003600000000     0.952470000000     0.243920000000    -0.559172   
O291     O      0.961530000000     0.499650000000     0.235890000000    -0.547789   
O292     O      0.551470000000     0.993410000000     0.245260000000    -0.55265    
O293     O      0.546300000000     0.501230000000     0.297960000000    -0.556072   
O294     O      0.956410000000     0.003960000000     0.288980000000    -0.549843   
O295     O      0.499590000000     0.957060000000     0.297170000000    -0.547727   
O296     O      0.002570000000     0.547060000000     0.289620000000    -0.556275   
O297     O      0.973310000000     0.793990000000     0.260180000000    -0.558116   
O298     O      0.973370000000     0.704180000000     0.250960000000    -0.55756    
O299     O      0.975240000000     0.744500000000     0.300220000000    -0.553239   
O300     O      0.971490000000     0.754160000000     0.209810000000    -0.554982   
O301     O      0.524590000000     0.751680000000     0.207600000000    -0.56101    
O302     O      0.528350000000     0.747020000000     0.298090000000    -0.558366   
O303     O      0.526550000000     0.704180000000     0.249150000000    -0.556581   
O304     O      0.526300000000     0.794170000000     0.256270000000    -0.558296   
O305     O      0.798370000000     0.979650000000     0.247840000000    -0.546637   
O306     O      0.708160000000     0.976010000000     0.257800000000    -0.547617   
O307     O      0.747610000000     0.980710000000     0.208540000000    -0.55121    
O308     O      0.758730000000     0.974350000000     0.298580000000    -0.552018   
O309     O      0.752500000000     0.526870000000     0.302950000000    -0.560682   
O310     O      0.750260000000     0.533650000000     0.212380000000    -0.556066   
O311     O      0.706420000000     0.529040000000     0.259560000000    -0.560343   
O312     O      0.796490000000     0.531920000000     0.256760000000    -0.562384   
O313     O      0.725350000000     0.505130000000     0.045060000000    -0.558904   
O314     O      0.740270000000     0.005390000000     0.455520000000    -0.560433   
O315     O      0.733000000000     0.959840000000     0.000060000000    -0.557711   
O316     O      0.732780000000     0.550080000000     0.499590000000    -0.557555   
O317     O      0.785630000000     0.549920000000     0.006050000000    -0.55701    
O318     O      0.784440000000     0.960130000000     0.513760000000    -0.54975    
O319     O      0.792570000000     0.500690000000     0.464450000000    -0.549356   
O320     O      0.777660000000     0.009910000000     0.053730000000    -0.555554   
O321     O      0.009490000000     0.742110000000     0.054880000000    -0.559933   
O322     O      0.503940000000     0.728750000000     0.465540000000    -0.558677   
O323     O      0.551780000000     0.732380000000     0.007940000000    -0.556765   
O324     O      0.961690000000     0.739010000000     0.512120000000    -0.552684   
O325     O      0.965210000000     0.789740000000     0.996830000000    -0.540243   
O326     O      0.554810000000     0.785440000000     0.507750000000    -0.552797   
O327     O      0.014730000000     0.780130000000     0.457520000000    -0.550193   
O328     O      0.505000000000     0.794470000000     0.047050000000    -0.544957   
O329     O      0.759660000000     0.711960000000     0.474230000000    -0.557797   
O330     O      0.749400000000     0.801080000000     0.483320000000    -0.555796   
O331     O      0.799960000000     0.761970000000     0.474620000000    -0.5506     
O332     O      0.710390000000     0.750360000000     0.483190000000    -0.555614   
O333     O      0.716040000000     0.750370000000     0.036370000000    -0.559486   
O334     O      0.805570000000     0.753520000000     0.027100000000    -0.566749   
O335     O      0.759500000000     0.797040000000     0.035620000000    -0.557031   
O336     O      0.763360000000     0.707220000000     0.027410000000    -0.557256   
O337     O      0.510530000000     0.542150000000     0.736970000000    -0.548889   
O338     O      0.003600000000     0.952470000000     0.743920000000    -0.559155   
O339     O      0.961530000000     0.499650000000     0.735890000000    -0.54776    
O340     O      0.551470000000     0.993410000000     0.745260000000    -0.552625   
O341     O      0.546300000000     0.501230000000     0.797960000000    -0.55599    
O342     O      0.956410000000     0.003960000000     0.788980000000    -0.549805   
O343     O      0.499590000000     0.957060000000     0.797170000000    -0.547641   
O344     O      0.002570000000     0.547060000000     0.789610000000    -0.556405   
O345     O      0.973310000000     0.793990000000     0.760180000000    -0.558106   
O346     O      0.973370000000     0.704180000000     0.750960000000    -0.557548   
O347     O      0.975240000000     0.744500000000     0.800220000000    -0.553237   
O348     O      0.971490000000     0.754160000000     0.709810000000    -0.554978   
O349     O      0.524590000000     0.751680000000     0.707600000000    -0.56101    
O350     O      0.528350000000     0.747020000000     0.798090000000    -0.558344   
O351     O      0.526550000000     0.704180000000     0.749150000000    -0.556571   
O352     O      0.526300000000     0.794170000000     0.756270000000    -0.558291   
O353     O      0.798370000000     0.979650000000     0.747840000000    -0.546638   
O354     O      0.708160000000     0.976010000000     0.757800000000    -0.547611   
O355     O      0.747610000000     0.980710000000     0.708540000000    -0.551215   
O356     O      0.758730000000     0.974350000000     0.798580000000    -0.551904   
O357     O      0.752500000000     0.526870000000     0.802950000000    -0.560586   
O358     O      0.750260000000     0.533650000000     0.712380000000    -0.556063   
O359     O      0.706420000000     0.529040000000     0.759560000000    -0.560335   
O360     O      0.796490000000     0.531920000000     0.756760000000    -0.56238    
O361     O      0.725350000000     0.505130000000     0.545060000000    -0.555396   
O362     O      0.740270000000     0.005390000000     0.955520000000    -0.561642   
O363     O      0.733000000000     0.959840000000     0.500060000000    -0.55334    
O364     O      0.732780000000     0.550080000000     0.999590000000    -0.555409   
O365     O      0.785630000000     0.549920000000     0.506050000000    -0.558179   
O366     O      0.784440000000     0.960130000000     0.013760000000    -0.549351   
O367     O      0.792570000000     0.500690000000     0.964450000000    -0.545857   
O368     O      0.777660000000     0.009910000000     0.553730000000    -0.556683   
O369     O      0.009490000000     0.742110000000     0.554880000000    -0.560565   
O370     O      0.503940000000     0.728750000000     0.965540000000    -0.555701   
O371     O      0.551780000000     0.732380000000     0.507940000000    -0.55632    
O372     O      0.961690000000     0.739010000000     0.012120000000    -0.551734   
O373     O      0.965210000000     0.789740000000     0.496830000000    -0.546817   
O374     O      0.554810000000     0.785440000000     0.007750000000    -0.552094   
O375     O      0.014730000000     0.780130000000     0.957520000000    -0.546773   
O376     O      0.505000000000     0.794470000000     0.547040000000    -0.546078   
O377     O      0.759660000000     0.711960000000     0.974230000000    -0.558804   
O378     O      0.749400000000     0.801080000000     0.983320000000    -0.552842   
O379     O      0.799960000000     0.761970000000     0.974620000000    -0.551541   
O380     O      0.710390000000     0.750360000000     0.983180000000    -0.552526   
O381     O      0.716040000000     0.750370000000     0.536370000000    -0.560586   
O382     O      0.805570000000     0.753520000000     0.527100000000    -0.563863   
O383     O      0.759500000000     0.797040000000     0.535620000000    -0.558006   
O384     O      0.763360000000     0.707220000000     0.527410000000    -0.554483   
S1       S      0.417710000000     0.297460000000     0.447880000000    -0.0143622  
S2       S      0.100490000000     0.288490000000     0.063340000000    -0.0248221  
S3       S      0.287030000000     0.413740000000     0.064920000000    -0.0178559  
S4       S      0.316880000000     0.164150000000     0.033740000000    -0.0252523  
S5       S      0.304510000000     0.450580000000     0.414030000000    -0.0231839  
S6       S      0.191800000000     0.478580000000     0.163550000000    -0.0228445  
S7       S      0.953910000000     0.217480000000     0.419510000000    -0.0145284  
S8       S      0.453750000000     0.305700000000     0.095640000000    -0.0226134  
S9       S      0.090910000000     0.434300000000     0.247590000000    -0.0140139  
S10      S      0.410630000000     0.056300000000     0.292250000000    -0.0250222  
S11      S      0.065900000000     0.409690000000     0.281810000000    -0.0187128  
S12      S      0.059100000000     0.088850000000     0.222630000000    -0.022087   
S13      S      0.417710000000     0.297460000000     0.947880000000    -0.0135766  
S14      S      0.100490000000     0.288490000000     0.563340000000    -0.0245601  
S15      S      0.287030000000     0.413740000000     0.564920000000    -0.0175143  
S16      S      0.316880000000     0.164150000000     0.533740000000    -0.0250702  
S17      S      0.304510000000     0.450580000000     0.914030000000    -0.02194    
S18      S      0.191800000000     0.478580000000     0.663550000000    -0.0226811  
S19      S      0.953910000000     0.217480000000     0.919500000000    -0.0131582  
S20      S      0.453750000000     0.305700000000     0.595640000000    -0.0219675  
S21      S      0.090910000000     0.434300000000     0.747590000000    -0.0139708  
S22      S      0.410630000000     0.056300000000     0.792250000000    -0.0247885  
S23      S      0.065900000000     0.409690000000     0.781810000000    -0.0185455  
S24      S      0.059100000000     0.088850000000     0.722630000000    -0.0219446  
S25      S      0.417710000000     0.797460000000     0.447880000000    -0.0141113  
S26      S      0.100490000000     0.788490000000     0.063340000000    -0.0246348  
S27      S      0.287030000000     0.913740000000     0.064920000000    -0.016573   
S28      S      0.316880000000     0.664150000000     0.033740000000    -0.0251104  
S29      S      0.304510000000     0.950580000000     0.414030000000    -0.0218147  
S30      S      0.191800000000     0.978580000000     0.163550000000    -0.0218389  
S31      S      0.953910000000     0.717480000000     0.419510000000    -0.0144069  
S32      S      0.453750000000     0.805690000000     0.095640000000    -0.0223569  
S33      S      0.090910000000     0.934300000000     0.247590000000    -0.0137268  
S34      S      0.410630000000     0.556300000000     0.292250000000    -0.0246093  
S35      S      0.065900000000     0.909690000000     0.281810000000    -0.0182249  
S36      S      0.059100000000     0.588840000000     0.222630000000    -0.0210204  
S37      S      0.417710000000     0.797460000000     0.947880000000    -0.0133286  
S38      S      0.100490000000     0.788490000000     0.563340000000    -0.0243727  
S39      S      0.287030000000     0.913740000000     0.564920000000    -0.0162299  
S40      S      0.316880000000     0.664150000000     0.533740000000    -0.0249277  
S41      S      0.304510000000     0.950580000000     0.914030000000    -0.0205807  
S42      S      0.191800000000     0.978580000000     0.663550000000    -0.0216769  
S43      S      0.953910000000     0.717480000000     0.919500000000    -0.013038   
S44      S      0.453750000000     0.805690000000     0.595640000000    -0.0217115  
S45      S      0.090910000000     0.934300000000     0.747590000000    -0.0136835  
S46      S      0.410630000000     0.556300000000     0.792250000000    -0.0243764  
S47      S      0.065900000000     0.909690000000     0.781810000000    -0.0180595  
S48      S      0.059100000000     0.588840000000     0.722630000000    -0.0208779  
S49      S      0.917720000000     0.297460000000     0.447880000000    -0.0127505  
S50      S      0.600490000000     0.288490000000     0.063340000000    -0.0244214  
S51      S      0.787030000000     0.413740000000     0.064920000000    -0.0175807  
S52      S      0.816880000000     0.164150000000     0.033740000000    -0.0248746  
S53      S      0.804510000000     0.450580000000     0.414030000000    -0.0228103  
S54      S      0.691800000000     0.478580000000     0.163550000000    -0.0226706  
S55      S      0.453920000000     0.217480000000     0.419510000000    -0.0162469  
S56      S      0.953750000000     0.305700000000     0.095640000000    -0.0208245  
S57      S      0.590910000000     0.434300000000     0.247590000000    -0.0137814  
S58      S      0.910630000000     0.056300000000     0.292250000000    -0.0236885  
S59      S      0.565900000000     0.409690000000     0.281810000000    -0.0182228  
S60      S      0.559110000000     0.088850000000     0.222630000000    -0.0214181  
S61      S      0.917720000000     0.297460000000     0.947880000000    -0.0119765  
S62      S      0.600490000000     0.288490000000     0.563340000000    -0.0241587  
S63      S      0.787030000000     0.413740000000     0.564920000000    -0.0172404  
S64      S      0.816880000000     0.164150000000     0.533740000000    -0.0246928  
S65      S      0.804510000000     0.450580000000     0.914030000000    -0.021573   
S66      S      0.691800000000     0.478580000000     0.663550000000    -0.0225068  
S67      S      0.453920000000     0.217480000000     0.919500000000    -0.014859   
S68      S      0.953750000000     0.305700000000     0.595640000000    -0.0201808  
S69      S      0.590910000000     0.434300000000     0.747590000000    -0.0137379  
S70      S      0.910630000000     0.056300000000     0.792250000000    -0.0234599  
S71      S      0.565900000000     0.409690000000     0.781810000000    -0.0180569  
S72      S      0.559110000000     0.088850000000     0.722630000000    -0.0212755  
S73      S      0.917720000000     0.797460000000     0.447880000000    -0.0124993  
S74      S      0.600490000000     0.788490000000     0.063340000000    -0.0242335  
S75      S      0.787030000000     0.913740000000     0.064920000000    -0.0162966  
S76      S      0.816880000000     0.664150000000     0.033740000000    -0.0247313  
S77      S      0.804510000000     0.950580000000     0.414030000000    -0.0214409  
S78      S      0.691800000000     0.978580000000     0.163550000000    -0.0216634  
S79      S      0.453920000000     0.717480000000     0.419510000000    -0.0161302  
S80      S      0.953750000000     0.805690000000     0.095640000000    -0.0205683  
S81      S      0.590910000000     0.934300000000     0.247590000000    -0.0134937  
S82      S      0.910630000000     0.556300000000     0.292250000000    -0.0232684  
S83      S      0.565900000000     0.909690000000     0.281810000000    -0.0177329  
S84      S      0.559110000000     0.588840000000     0.222630000000    -0.020343   
S85      S      0.917720000000     0.797460000000     0.947880000000    -0.0117282  
S86      S      0.600490000000     0.788490000000     0.563340000000    -0.0239708  
S87      S      0.787030000000     0.913740000000     0.564920000000    -0.0159547  
S88      S      0.816880000000     0.664150000000     0.533740000000    -0.024549   
S89      S      0.804510000000     0.950580000000     0.914030000000    -0.0202135  
S90      S      0.691800000000     0.978580000000     0.663550000000    -0.021501   
S91      S      0.453920000000     0.717480000000     0.919500000000    -0.0147435  
S92      S      0.953750000000     0.805690000000     0.595640000000    -0.019925   
S93      S      0.590910000000     0.934300000000     0.747590000000    -0.0134501  
S94      S      0.910630000000     0.556300000000     0.792250000000    -0.0230406  
S95      S      0.565900000000     0.909690000000     0.781810000000    -0.017569   
S96      S      0.559110000000     0.588840000000     0.722630000000    -0.0202002  
V1       V      0.506890000000     0.996900000000     0.238340000000     1.39997    
V2       V      0.501030000000     0.502420000000     0.295580000000     1.39528    
V3       V      0.471200000000     0.249140000000     0.255220000000     1.38491    
V4       V      0.028560000000     0.249220000000     0.252660000000     1.39486    
V5       V      0.253350000000     0.475480000000     0.253160000000     1.37442    
V6       V      0.251390000000     0.032500000000     0.258000000000     1.40114    
V7       V      0.230700000000     0.504980000000     0.999740000000     1.40809    
V8       V      0.287260000000     0.505030000000     0.509700000000     1.39302    
V9       V      0.006580000000     0.233340000000     0.010490000000     1.39461    
V10      V      0.010130000000     0.289710000000     0.501920000000     1.37575    
V11      V      0.254700000000     0.256670000000     0.476660000000     1.38146    
V12      V      0.261220000000     0.251920000000     0.033780000000     1.40284    
V13      V      0.506890000000     0.996900000000     0.738340000000     1.40002    
V14      V      0.501030000000     0.502420000000     0.795580000000     1.39561    
V15      V      0.471200000000     0.249140000000     0.755220000000     1.38489    
V16      V      0.028560000000     0.249220000000     0.752660000000     1.39486    
V17      V      0.253350000000     0.475480000000     0.753160000000     1.37439    
V18      V      0.251390000000     0.032500000000     0.758000000000     1.40114    
V19      V      0.230700000000     0.504980000000     0.499740000000     1.39417    
V20      V      0.287260000000     0.505030000000     0.009700000000     1.38225    
V21      V      0.006580000000     0.233340000000     0.510490000000     1.39807    
V22      V      0.010130000000     0.289710000000     0.001920000000     1.36667    
V23      V      0.254700000000     0.256670000000     0.976660000000     1.38536    
V24      V      0.261220000000     0.251920000000     0.533780000000     1.40653    
V25      V      0.506890000000     0.496900000000     0.238340000000     1.39065    
V26      V      0.501030000000     0.002420000000     0.295580000000     1.38624    
V27      V      0.471200000000     0.749140000000     0.255220000000     1.38491    
V28      V      0.028560000000     0.749220000000     0.252660000000     1.39482    
V29      V      0.253350000000     0.975480000000     0.253160000000     1.37742    
V30      V      0.251390000000     0.532500000000     0.258000000000     1.40531    
V31      V      0.230700000000     0.004980000000     0.999740000000     1.40448    
V32      V      0.287260000000     0.005030000000     0.509700000000     1.38899    
V33      V      0.006580000000     0.733340000000     0.010490000000     1.39468    
V34      V      0.010130000000     0.789710000000     0.501920000000     1.37599    
V35      V      0.254700000000     0.756670000000     0.476660000000     1.38146    
V36      V      0.261220000000     0.751920000000     0.033780000000     1.40283    
V37      V      0.506890000000     0.496900000000     0.738340000000     1.39071    
V38      V      0.501030000000     0.002420000000     0.795580000000     1.38658    
V39      V      0.471200000000     0.749140000000     0.755220000000     1.38489    
V40      V      0.028560000000     0.749220000000     0.752660000000     1.39482    
V41      V      0.253350000000     0.975480000000     0.753160000000     1.37739    
V42      V      0.251390000000     0.532500000000     0.758000000000     1.40531    
V43      V      0.230700000000     0.004980000000     0.499740000000     1.39057    
V44      V      0.287260000000     0.005030000000     0.009700000000     1.37826    
V45      V      0.006580000000     0.733340000000     0.510490000000     1.39814    
V46      V      0.010130000000     0.789710000000     0.001920000000     1.36692    
V47      V      0.254700000000     0.756670000000     0.976660000000     1.38535    
V48      V      0.261220000000     0.751920000000     0.533780000000     1.40651    
V49      V      0.006890000000     0.996900000000     0.238340000000     1.39524    
V50      V      0.001040000000     0.502420000000     0.295580000000     1.38371    
V51      V      0.971200000000     0.249140000000     0.255220000000     1.39094    
V52      V      0.528560000000     0.249220000000     0.252660000000     1.39846    
V53      V      0.753350000000     0.475480000000     0.253160000000     1.37409    
V54      V      0.751390000000     0.032500000000     0.258000000000     1.40117    
V55      V      0.730700000000     0.504980000000     0.999740000000     1.40812    
V56      V      0.787260000000     0.505030000000     0.509700000000     1.39334    
V57      V      0.506580000000     0.233340000000     0.010490000000     1.40006    
V58      V      0.510130000000     0.289710000000     0.501920000000     1.38115    
V59      V      0.754700000000     0.256670000000     0.476660000000     1.38174    
V60      V      0.761220000000     0.251920000000     0.033780000000     1.40277    
V61      V      0.006890000000     0.996900000000     0.738340000000     1.39529    
V62      V      0.001040000000     0.502420000000     0.795580000000     1.38407    
V63      V      0.971200000000     0.249140000000     0.755220000000     1.39091    
V64      V      0.528560000000     0.249220000000     0.752660000000     1.39845    
V65      V      0.753350000000     0.475480000000     0.753160000000     1.37407    
V66      V      0.751390000000     0.032500000000     0.758000000000     1.40117    
V67      V      0.730700000000     0.504980000000     0.499740000000     1.39424    
V68      V      0.787260000000     0.505030000000     0.009700000000     1.38261    
V69      V      0.506580000000     0.233340000000     0.510490000000     1.40354    
V70      V      0.510130000000     0.289710000000     0.001920000000     1.37202    
V71      V      0.754700000000     0.256670000000     0.976660000000     1.38563    
V72      V      0.761220000000     0.251920000000     0.533780000000     1.40645    
V73      V      0.006890000000     0.496900000000     0.238340000000     1.38598    
V74      V      0.001040000000     0.002420000000     0.295580000000     1.37477    
V75      V      0.971200000000     0.749140000000     0.255220000000     1.39095    
V76      V      0.528560000000     0.749220000000     0.252660000000     1.39843    
V77      V      0.753350000000     0.975480000000     0.253160000000     1.3771     
V78      V      0.751390000000     0.532500000000     0.258000000000     1.40536    
V79      V      0.730700000000     0.004980000000     0.999740000000     1.4045     
V80      V      0.787260000000     0.005030000000     0.509700000000     1.3893     
V81      V      0.506580000000     0.733340000000     0.010490000000     1.40015    
V82      V      0.510130000000     0.789710000000     0.501920000000     1.3814     
V83      V      0.754700000000     0.756670000000     0.476660000000     1.38174    
V84      V      0.761220000000     0.751920000000     0.033780000000     1.40276    
V85      V      0.006890000000     0.496900000000     0.738340000000     1.38603    
V86      V      0.001040000000     0.002420000000     0.795580000000     1.37514    
V87      V      0.971200000000     0.749140000000     0.755220000000     1.39092    
V88      V      0.528560000000     0.749220000000     0.752660000000     1.39842    
V89      V      0.753350000000     0.975480000000     0.753160000000     1.37707    
V90      V      0.751390000000     0.532500000000     0.758000000000     1.40536    
V91      V      0.730700000000     0.004980000000     0.499740000000     1.39062    
V92      V      0.787260000000     0.005030000000     0.009700000000     1.3786     
V93      V      0.506580000000     0.733340000000     0.510490000000     1.40363    
V94      V      0.510130000000     0.789710000000     0.001920000000     1.37228    
V95      V      0.754700000000     0.756670000000     0.976660000000     1.38562    
V96      V      0.761220000000     0.751920000000     0.533780000000     1.40643    


