data_structure

_audit_creation_method RASPA-1.0
_audit_creation_date 2023-5-22
_audit_author_name 'Poobodin Mano'

_cell_length_a    41.7112
_cell_length_b    41.6776
_cell_length_c    41.8947
_cell_angle_alpha 90
_cell_angle_beta  90
_cell_angle_gamma 90
_cell_volume      72830.7

_symmetry_cell_setting          triclinic
_symmetry_space_group_name_Hall 'P 1'
_symmetry_space_group_name_H-M  'P 1'
_symmetry_Int_Tables_number     1

_symmetry_equiv_pos_as_xyz 'x,y,z'

loop_
_atom_site_label
_atom_site_type_symbol
_atom_site_fract_x
_atom_site_fract_y
_atom_site_fract_z
_atom_site_charge
C1       C      0.393960000000     0.889880000000     0.077140000000     0.47289    
C2       C      0.397770000000     0.894110000000     0.456300000000     0.474929   
C3       C      0.397260000000     0.952870000000     0.516970000000     0.471856   
C4       C      0.394090000000     0.831380000000     0.514790000000     0.474135   
C5       C      0.397650000000     0.882310000000     0.327580000000     0.475355   
C6       C      0.393940000000     0.896920000000     0.207550000000     0.473772   
C7       C      0.397020000000     0.950030000000     0.274590000000     0.475703   
C8       C      0.394990000000     0.829330000000     0.262250000000     0.475439   
C9       C      0.400260000000     0.136160000000     0.439890000000     0.470004   
C10      C      0.399890000000     0.153510000000     0.059980000000     0.47146    
C11      C      0.399570000000     0.085040000000     0.010150000000     0.471758   
C12      C      0.400490000000     0.205200000000     0.991360000000     0.472881   
C13      C      0.400660000000     0.134510000000     0.187900000000     0.471589   
C14      C      0.400220000000     0.142900000000     0.308950000000     0.469667   
C15      C      0.399380000000     0.077790000000     0.252590000000     0.474763   
C16      C      0.401550000000     0.198770000000     0.243200000000     0.476097   
C17      C      0.891810000000     0.622380000000     0.078920000000     0.474608   
C18      C      0.876660000000     0.625520000000     0.459110000000     0.475232   
C19      C      0.945830000000     0.625700000000     0.511460000000     0.471874   
C20      C      0.825350000000     0.621490000000     0.526510000000     0.47492    
C21      C      0.884370000000     0.626560000000     0.329190000000     0.474533   
C22      C      0.897850000000     0.622940000000     0.209190000000     0.475637   
C23      C      0.950280000000     0.624950000000     0.275460000000     0.475101   
C24      C      0.829480000000     0.625370000000     0.262670000000     0.472512   
C25      C      0.144710000000     0.631930000000     0.439980000000     0.471973   
C26      C      0.125210000000     0.627610000000     0.059450000000     0.473479   
C27      C      0.074760000000     0.628300000000     0.990450000000     0.471806   
C28      C      0.194910000000     0.631900000000     0.009230000000     0.471232   
C29      C      0.137110000000     0.627510000000     0.188690000000     0.473035   
C30      C      0.136380000000     0.630820000000     0.309780000000     0.47187    
C31      C      0.076080000000     0.628010000000     0.249330000000     0.475332   
C32      C      0.197360000000     0.629620000000     0.248750000000     0.475364   
C33      C      0.621330000000     0.136750000000     0.031450000000     0.474075   
C34      C      0.621430000000     0.126290000000     0.410870000000     0.474246   
C35      C      0.625750000000     0.070820000000     0.475680000000     0.4739     
C36      C      0.617090000000     0.191690000000     0.466620000000     0.47507    
C37      C      0.620860000000     0.140270000000     0.282180000000     0.474059   
C38      C      0.620900000000     0.129530000000     0.161620000000     0.472955   
C39      C      0.623970000000     0.074410000000     0.226910000000     0.473361   
C40      C      0.617730000000     0.195440000000     0.217350000000     0.47417    
C41      C      0.632500000000     0.876810000000     0.451150000000     0.474475   
C42      C      0.635560000000     0.889510000000     0.071420000000     0.47392    
C43      C      0.632230000000     0.943560000000     0.005860000000     0.472473   
C44      C      0.634860000000     0.822470000000     0.016520000000     0.472615   
C45      C      0.636990000000     0.884010000000     0.201630000000     0.474157   
C46      C      0.633240000000     0.890530000000     0.322360000000     0.474783   
C47      C      0.630990000000     0.948140000000     0.259150000000     0.473848   
C48      C      0.640090000000     0.827000000000     0.263870000000     0.473691   
C49      C      0.376530000000     0.453320000000     0.519550000000     0.473128   
C50      C      0.381520000000     0.332380000000     0.509070000000     0.472063   
C51      C      0.439060000000     0.395970000000     0.007530000000     0.470568   
C52      C      0.318880000000     0.390980000000     0.021730000000     0.470185   
C53      C      0.371320000000     0.447630000000     0.256990000000     0.474621   
C54      C      0.384070000000     0.327100000000     0.252500000000     0.475071   
C55      C      0.438050000000     0.393870000000     0.247020000000     0.471515   
C56      C      0.318220000000     0.381200000000     0.262470000000     0.472532   
C57      C      0.391770000000     0.582300000000     0.025900000000     0.469204   
C58      C      0.378000000000     0.702970000000     0.027460000000     0.472562   
C59      C      0.444800000000     0.649730000000     0.524730000000     0.47158    
C60      C      0.324300000000     0.634680000000     0.528430000000     0.471666   
C61      C      0.387640000000     0.576490000000     0.257180000000     0.4745     
C62      C      0.388860000000     0.697800000000     0.257070000000     0.47446    
C63      C      0.448970000000     0.635650000000     0.257730000000     0.474437   
C64      C      0.327770000000     0.638520000000     0.257100000000     0.474675   
C65      C      0.566330000000     0.375190000000     0.500090000000     0.474951   
C66      C      0.687440000000     0.379080000000     0.501090000000     0.474303   
C67      C      0.624070000000     0.437950000000     0.008730000000     0.466896   
C68      C      0.628910000000     0.317660000000     0.992270000000     0.477692   
C69      C      0.568230000000     0.381120000000     0.238100000000     0.471749   
C70      C      0.689680000000     0.385640000000     0.237460000000     0.473527   
C71      C      0.628430000000     0.443860000000     0.239120000000     0.472684   
C72      C      0.630960000000     0.322400000000     0.236010000000     0.474231   
C73      C      0.634340000000     0.569160000000     0.518770000000     0.470521   
C74      C      0.636360000000     0.690630000000     0.523190000000     0.471741   
C75      C      0.573760000000     0.630920000000     0.020620000000     0.467195   
C76      C      0.695080000000     0.629480000000     0.021510000000     0.469533   
C77      C      0.629390000000     0.575420000000     0.246560000000     0.472508   
C78      C      0.645380000000     0.695100000000     0.258630000000     0.472713   
C79      C      0.578970000000     0.644020000000     0.255410000000     0.473221   
C80      C      0.698950000000     0.626490000000     0.249400000000     0.47182    
C81      C      0.129560000000     0.385170000000     0.087230000000     0.473287   
C82      C      0.126550000000     0.384930000000     0.466190000000     0.472649   
C83      C      0.067240000000     0.385130000000     0.529150000000     0.475556   
C84      C      0.188400000000     0.384250000000     0.524090000000     0.475743   
C85      C      0.120140000000     0.386760000000     0.335930000000     0.47339    
C86      C      0.140700000000     0.386380000000     0.216610000000     0.473728   
C87      C      0.070500000000     0.384930000000     0.266440000000     0.473159   
C88      C      0.190510000000     0.389100000000     0.285080000000     0.473474   
C89      C      0.877640000000     0.384170000000     0.450840000000     0.472672   
C90      C      0.878470000000     0.387550000000     0.071900000000     0.472727   
C91      C      0.938670000000     0.385430000000     0.010210000000     0.47461    
C92      C      0.817380000000     0.387100000000     0.012430000000     0.474933   
C93      C      0.890010000000     0.386840000000     0.201430000000     0.472986   
C94      C      0.870010000000     0.382850000000     0.320810000000     0.472996   
C95      C      0.940210000000     0.384580000000     0.270800000000     0.473146   
C96      C      0.820210000000     0.384310000000     0.252050000000     0.473438   
C97      C      0.881630000000     0.412980000000     0.399400000000    -0.00836366 
C98      C      0.881260000000     0.352480000000     0.400720000000    -0.00904424 
C99      C      0.858800000000     0.412180000000     0.371020000000    -0.00763808 
C100     C      0.859910000000     0.352210000000     0.370860000000    -0.00868277 
C101     C      0.875070000000     0.418210000000     0.122710000000    -0.00904154 
C102     C      0.876430000000     0.357770000000     0.122960000000    -0.00791126 
C103     C      0.897780000000     0.418460000000     0.151570000000    -0.00853195 
C104     C      0.900410000000     0.358550000000     0.150410000000    -0.00826129 
C105     C      0.019610000000     0.414040000000     0.256370000000    -0.00876089 
C106     C      0.020210000000     0.353880000000     0.258360000000    -0.00933996 
C107     C      0.990890000000     0.414660000000     0.278980000000    -0.00721325 
C108     C      0.990790000000     0.354460000000     0.280320000000    -0.00805612 
C109     C      0.131360000000     0.415640000000     0.415810000000    -0.00828826 
C110     C      0.129680000000     0.355150000000     0.415100000000    -0.00848026 
C111     C      0.109830000000     0.416470000000     0.386290000000    -0.00840606 
C112     C      0.108110000000     0.356530000000     0.385600000000    -0.00832988 
C113     C      0.150300000000     0.416020000000     0.166070000000    -0.00799091 
C114     C      0.150830000000     0.356070000000     0.166560000000    -0.0082378  
C115     C      0.127100000000     0.415890000000     0.137820000000    -0.00852973 
C116     C      0.127510000000     0.355360000000     0.138380000000    -0.00861782 
C117     C      0.015990000000     0.355110000000     0.032940000000    -0.00765035 
C118     C      0.016100000000     0.415310000000     0.532810000000    -0.00895129 
C119     C      0.989750000000     0.355020000000     0.007470000000    -0.0116952  
C120     C      0.990020000000     0.415280000000     0.507200000000    -0.00677743 
C121     C      0.771750000000     0.359380000000     0.229730000000    -0.00690309 
C122     C      0.768330000000     0.402090000000     0.272490000000    -0.00819331 
C123     C      0.742230000000     0.373790000000     0.213430000000    -0.00701126 
C124     C      0.736860000000     0.413910000000     0.257990000000    -0.00696287 
C125     C      0.614400000000     0.523870000000     0.271740000000    -0.00818908 
C126     C      0.618090000000     0.527970000000     0.212300000000    -0.0084691  
C127     C      0.634080000000     0.493150000000     0.271230000000    -0.00771085 
C128     C      0.635930000000     0.495750000000     0.211090000000    -0.00910916 
C129     C      0.737130000000     0.352780000000     0.018620000000    -0.00794225 
C130     C      0.738650000000     0.398710000000     0.479420000000    -0.007277   
C131     C      0.767170000000     0.365860000000     0.034920000000    -0.00743081 
C132     C      0.766670000000     0.413480000000     0.497800000000    -0.00728344 
C133     C      0.636960000000     0.520090000000     0.485780000000    -0.00789755 
C134     C      0.641140000000     0.516220000000     0.045520000000    -0.00977201 
C135     C      0.614180000000     0.491600000000     0.485530000000    -0.00816368 
C136     C      0.620620000000     0.485480000000     0.044700000000    -0.00931492 
C137     C      0.529470000000     0.653400000000     0.287210000000    -0.00857372 
C138     C      0.527650000000     0.654090000000     0.227500000000    -0.00764584 
C139     C      0.500060000000     0.631310000000     0.287890000000    -0.00863569 
C140     C      0.499760000000     0.630510000000     0.227760000000    -0.00796991 
C141     C      0.495090000000     0.658050000000     0.493730000000    -0.00875939 
C142     C      0.496840000000     0.652820000000     0.053190000000    -0.00826909 
C143     C      0.522280000000     0.633380000000     0.490700000000    -0.0089602  
C144     C      0.522610000000     0.626980000000     0.050430000000    -0.00882043 
C145     C      0.240490000000     0.416180000000     0.269940000000    -0.00759258 
C146     C      0.242070000000     0.367740000000     0.305780000000    -0.0075404  
C147     C      0.264820000000     0.400530000000     0.247700000000    -0.00680496 
C148     C      0.271230000000     0.355020000000     0.287140000000    -0.00830095 
C149     C      0.515690000000     0.377420000000     0.209790000000    -0.00953779 
C150     C      0.518370000000     0.376880000000     0.269710000000    -0.00759601 
C151     C      0.485970000000     0.399400000000     0.211670000000    -0.0091354  
C152     C      0.491610000000     0.401600000000     0.271160000000    -0.00816542 
C153     C      0.361590000000     0.499130000000     0.228990000000    -0.0077407  
C154     C      0.367390000000     0.498020000000     0.288430000000    -0.00811759 
C155     C      0.386830000000     0.525540000000     0.226740000000    -0.00811087 
C156     C      0.392210000000     0.525010000000     0.286610000000    -0.00863385 
C157     C      0.240140000000     0.358220000000     0.035440000000    -0.00655851 
C158     C      0.236380000000     0.405240000000     0.497580000000    -0.00724839 
C159     C      0.270500000000     0.372700000000     0.050080000000    -0.00810884 
C160     C      0.268010000000     0.418150000000     0.510470000000    -0.00718918 
C161     C      0.514270000000     0.373730000000     0.470850000000    -0.00889677 
C162     C      0.515900000000     0.370990000000     0.030660000000    -0.0073352  
C163     C      0.487630000000     0.399230000000     0.472960000000    -0.00893232 
C164     C      0.492520000000     0.398820000000     0.032660000000    -0.0078169  
C165     C      0.398800000000     0.532240000000     0.494870000000    -0.00803407 
C166     C      0.397470000000     0.530260000000     0.054610000000    -0.00913313 
C167     C      0.373050000000     0.506390000000     0.493280000000    -0.00773037 
C168     C      0.373300000000     0.502490000000     0.053160000000    -0.00913508 
C169     C      0.615060000000     0.743790000000     0.247990000000    -0.00739777 
C170     C      0.660300000000     0.744410000000     0.287610000000    -0.00710782 
C171     C      0.623670000000     0.777610000000     0.237270000000    -0.0079559  
C172     C      0.670470000000     0.777620000000     0.275480000000    -0.00728073 
C173     C      0.623040000000     0.741820000000     0.049230000000    -0.0078887  
C174     C      0.665150000000     0.739120000000     0.006350000000    -0.0164692  
C175     C      0.609540000000     0.772400000000     0.534280000000    -0.00694472 
C176     C      0.654690000000     0.772090000000     0.494000000000    -0.00859862 
C177     C      0.662290000000     0.871400000000     0.400310000000    -0.00773101 
C178     C      0.602230000000     0.869350000000     0.400490000000    -0.00868535 
C179     C      0.661600000000     0.896540000000     0.373920000000    -0.0080342  
C180     C      0.601460000000     0.893160000000     0.372550000000    -0.00856968 
C181     C      0.666830000000     0.898970000000     0.121070000000    -0.00851317 
C182     C      0.606720000000     0.898000000000     0.122340000000    -0.00801011 
C183     C      0.667840000000     0.878070000000     0.151210000000    -0.00877355 
C184     C      0.607630000000     0.875610000000     0.151030000000    -0.00770478 
C185     C      0.654380000000     0.273190000000     0.213460000000    -0.00658209 
C186     C      0.611980000000     0.270360000000     0.256400000000    -0.00731788 
C187     C      0.637320000000     0.246570000000     0.195020000000    -0.00655529 
C188     C      0.593410000000     0.245760000000     0.236370000000    -0.00796186 
C189     C      0.596710000000     0.021450000000     0.229250000000    -0.00922353 
C190     C      0.656810000000     0.024880000000     0.230320000000    -0.00815972 
C191     C      0.597630000000     0.997530000000     0.257000000000    -0.0073431  
C192     C      0.657590000000     0.001410000000     0.258340000000    -0.00924805 
C193     C      0.636310000000     0.243800000000     0.445860000000    -0.00656223 
C194     C      0.590920000000     0.241040000000     0.485340000000    -0.00782229 
C195     C      0.652120000000     0.270370000000     0.965610000000    -0.00788717 
C196     C      0.608600000000     0.264440000000     0.007280000000    -0.0144406  
C197     C      0.650770000000     0.146810000000     0.333000000000    -0.00831019 
C198     C      0.590650000000     0.144720000000     0.333050000000    -0.00801255 
C199     C      0.651590000000     0.122070000000     0.359950000000    -0.00844957 
C200     C      0.591450000000     0.120040000000     0.360050000000    -0.0084464  
C201     C      0.650930000000     0.145180000000     0.082150000000    -0.00836633 
C202     C      0.590780000000     0.143570000000     0.081830000000    -0.00797358 
C203     C      0.651280000000     0.122870000000     0.111130000000    -0.00854976 
C204     C      0.591100000000     0.121460000000     0.110960000000    -0.0086745  
C205     C      0.600210000000     0.993600000000     0.504030000000    -0.00683759 
C206     C      0.660360000000     0.996120000000     0.003960000000    -0.0110989  
C207     C      0.599100000000     0.017680000000     0.476640000000    -0.0089533  
C208     C      0.659140000000     0.021410000000     0.977390000000    -0.00569703 
C209     C      0.248450000000     0.605550000000     0.265130000000    -0.00677302 
C210     C      0.246800000000     0.649730000000     0.223960000000    -0.00760648 
C211     C      0.276830000000     0.621930000000     0.281300000000    -0.00698983 
C212     C      0.278140000000     0.663350000000     0.237350000000    -0.00768468 
C213     C      0.278410000000     0.602300000000     0.510510000000    -0.00667893 
C214     C      0.270860000000     0.645970000000     0.051130000000    -0.00843268 
C215     C      0.248150000000     0.613090000000     0.492950000000    -0.00852115 
C216     C      0.242180000000     0.658950000000     0.032140000000    -0.00700414 
C217     C      0.132100000000     0.662290000000     0.360020000000    -0.00908956 
C218     C      0.132680000000     0.601840000000     0.361200000000    -0.00833814 
C219     C      0.153570000000     0.662840000000     0.389830000000    -0.00887961 
C220     C      0.155620000000     0.602870000000     0.389510000000    -0.0079053  
C221     C      0.114300000000     0.655750000000     0.110430000000    -0.00819225 
C222     C      0.118600000000     0.595910000000     0.109410000000    -0.00837249 
C223     C      0.138570000000     0.657270000000     0.137590000000    -0.00791811 
C224     C      0.141680000000     0.596920000000     0.137940000000    -0.00899204 
C225     C      0.746060000000     0.594590000000     0.265520000000    -0.00750618 
C226     C      0.751390000000     0.638630000000     0.224960000000    -0.00806555 
C227     C      0.777470000000     0.605150000000     0.281290000000    -0.00847423 
C228     C      0.780650000000     0.651790000000     0.242730000000    -0.007089   
C229     C      0.024270000000     0.657180000000     0.251600000000    -0.00792156 
C230     C      0.025290000000     0.596920000000     0.248970000000    -0.00791422 
C231     C      0.001240000000     0.655330000000     0.279920000000    -0.00902506 
C232     C      0.001940000000     0.595370000000     0.277120000000    -0.00937679 
C233     C      0.745600000000     0.611260000000     0.497810000000    -0.00664757 
C234     C      0.745020000000     0.653730000000     0.040940000000    -0.00773504 
C235     C      0.774160000000     0.595260000000     0.514050000000    -0.00717829 
C236     C      0.776620000000     0.640390000000     0.054020000000    -0.00786485 
C237     C      0.888140000000     0.597080000000     0.380060000000    -0.00804237 
C238     C      0.884910000000     0.657670000000     0.379610000000    -0.00893337 
C239     C      0.865890000000     0.596390000000     0.408790000000    -0.00723974 
C240     C      0.864120000000     0.656270000000     0.409780000000    -0.00813172 
C241     C      0.890470000000     0.652330000000     0.129600000000    -0.00766465 
C242     C      0.888280000000     0.591660000000     0.129340000000    -0.00875659 
C243     C      0.911710000000     0.651130000000     0.159080000000    -0.00780334 
C244     C      0.908300000000     0.591320000000     0.159990000000    -0.00795552 
C245     C      0.996130000000     0.657310000000     0.007750000000    -0.0113115  
C246     C      0.997730000000     0.596770000000     0.509340000000    -0.00753753 
C247     C      0.022960000000     0.656920000000     0.982760000000    -0.00567967 
C248     C      0.024330000000     0.597110000000     0.484160000000    -0.00910024 
C249     C      0.408410000000     0.277680000000     0.273450000000    -0.00701631 
C250     C      0.363750000000     0.275580000000     0.232550000000    -0.00788432 
C251     C      0.426010000000     0.251070000000     0.255430000000    -0.00755657 
C252     C      0.380140000000     0.246970000000     0.216700000000    -0.00632565 
C253     C      0.424470000000     0.257390000000     0.505050000000    -0.00813941 
C254     C      0.377270000000     0.254540000000     0.467900000000    -0.00695252 
C255     C      0.406660000000     0.281730000000     0.025880000000    -0.0057107  
C256     C      0.360960000000     0.281920000000     0.986160000000    -0.00111425 
C257     C      0.430420000000     0.127750000000     0.389360000000    -0.00862455 
C258     C      0.370360000000     0.127220000000     0.389300000000    -0.00891664 
C259     C      0.430280000000     0.149340000000     0.359750000000    -0.00897028 
C260     C      0.370040000000     0.148930000000     0.359750000000    -0.00900604 
C261     C      0.429860000000     0.159270000000     0.110980000000    -0.00859088 
C262     C      0.369860000000     0.157740000000     0.111090000000    -0.00867199 
C263     C      0.430780000000     0.133160000000     0.136700000000    -0.00854883 
C264     C      0.370580000000     0.131550000000     0.136760000000    -0.00882404 
C265     C      0.404120000000     0.748390000000     0.231240000000    -0.00683108 
C266     C      0.363900000000     0.747440000000     0.276220000000    -0.00798778 
C267     C      0.419310000000     0.778530000000     0.245320000000    -0.00662228 
C268     C      0.376350000000     0.779990000000     0.287660000000    -0.00779002 
C269     C      0.368200000000     0.027160000000     0.254090000000    -0.00805309 
C270     C      0.428630000000     0.026000000000     0.253820000000    -0.00797256 
C271     C      0.368080000000     0.001760000000     0.280420000000    -0.00903462 
C272     C      0.427980000000     0.000610000000     0.280160000000    -0.00916914 
C273     C      0.372460000000     0.781900000000     0.490750000000    -0.00731012 
C274     C      0.414860000000     0.779540000000     0.533660000000    -0.0071921  
C275     C      0.355160000000     0.753410000000     0.006210000000    -0.015979   
C276     C      0.395210000000     0.754120000000     0.051280000000    -0.00843007 
C277     C      0.368350000000     0.875110000000     0.378430000000    -0.00727339 
C278     C      0.428370000000     0.873510000000     0.377740000000    -0.00847937 
C279     C      0.369040000000     0.899970000000     0.405010000000    -0.00806185 
C280     C      0.429290000000     0.896900000000     0.406010000000    -0.00867894 
C281     C      0.362630000000     0.904720000000     0.157560000000    -0.00868362 
C282     C      0.422650000000     0.907010000000     0.156790000000    -0.0082037  
C283     C      0.363020000000     0.883620000000     0.127500000000    -0.0089463  
C284     C      0.423310000000     0.884470000000     0.128170000000    -0.00781627 
C285     C      0.429180000000     0.035390000000     0.524310000000    -0.00806561 
C286     C      0.369250000000     0.036390000000     0.025870000000    -0.00687193 
C287     C      0.428450000000     0.002520000000     0.508040000000    -0.0098323  
C288     C      0.367970000000     0.003790000000     0.009250000000    -0.0140129  
C289     C      0.393960000000     0.889880000000     0.577140000000     0.473224   
C290     C      0.397770000000     0.894110000000     0.956310000000     0.474528   
C291     C      0.397260000000     0.952870000000     0.016970000000     0.470936   
C292     C      0.394090000000     0.831380000000     0.014790000000     0.473627   
C293     C      0.397650000000     0.882310000000     0.827580000000     0.475365   
C294     C      0.393940000000     0.896920000000     0.707550000000     0.473761   
C295     C      0.397020000000     0.950030000000     0.774590000000     0.475704   
C296     C      0.394990000000     0.829330000000     0.762250000000     0.475435   
C297     C      0.400260000000     0.136160000000     0.939890000000     0.469972   
C298     C      0.399890000000     0.153510000000     0.559980000000     0.471335   
C299     C      0.399570000000     0.085040000000     0.510150000000     0.471814   
C300     C      0.400490000000     0.205200000000     0.491360000000     0.472961   
C301     C      0.400660000000     0.134510000000     0.687900000000     0.471578   
C302     C      0.400220000000     0.142900000000     0.808950000000     0.469668   
C303     C      0.399380000000     0.077790000000     0.752590000000     0.474762   
C304     C      0.401550000000     0.198770000000     0.743200000000     0.476088   
C305     C      0.891810000000     0.622380000000     0.578920000000     0.47491    
C306     C      0.876660000000     0.625520000000     0.959110000000     0.474711   
C307     C      0.945830000000     0.625700000000     0.011460000000     0.47109    
C308     C      0.825350000000     0.621490000000     0.026510000000     0.473929   
C309     C      0.884370000000     0.626560000000     0.829190000000     0.474547   
C310     C      0.897850000000     0.622940000000     0.709190000000     0.475623   
C311     C      0.950280000000     0.624950000000     0.775450000000     0.475116   
C312     C      0.829480000000     0.625370000000     0.762670000000     0.472505   
C313     C      0.144710000000     0.631930000000     0.939980000000     0.471866   
C314     C      0.125210000000     0.627610000000     0.559450000000     0.473365   
C315     C      0.074760000000     0.628300000000     0.490440000000     0.471463   
C316     C      0.194910000000     0.631900000000     0.509220000000     0.471213   
C317     C      0.137110000000     0.627510000000     0.688690000000     0.473136   
C318     C      0.136380000000     0.630820000000     0.809780000000     0.471796   
C319     C      0.076080000000     0.628010000000     0.749320000000     0.475317   
C320     C      0.197360000000     0.629620000000     0.748740000000     0.475346   
C321     C      0.621330000000     0.136750000000     0.531450000000     0.473555   
C322     C      0.621430000000     0.126290000000     0.910870000000     0.474547   
C323     C      0.625750000000     0.070820000000     0.975680000000     0.474722   
C324     C      0.617090000000     0.191690000000     0.966620000000     0.476068   
C325     C      0.620860000000     0.140270000000     0.782180000000     0.474051   
C326     C      0.620900000000     0.129530000000     0.661620000000     0.472957   
C327     C      0.623970000000     0.074410000000     0.726910000000     0.473359   
C328     C      0.617730000000     0.195440000000     0.717350000000     0.47416    
C329     C      0.632500000000     0.876810000000     0.951150000000     0.473939   
C330     C      0.635560000000     0.889510000000     0.571420000000     0.474217   
C331     C      0.632230000000     0.943560000000     0.505860000000     0.473277   
C332     C      0.634860000000     0.822470000000     0.516520000000     0.47313    
C333     C      0.636990000000     0.884010000000     0.701620000000     0.474121   
C334     C      0.633240000000     0.890530000000     0.822360000000     0.474904   
C335     C      0.630990000000     0.948140000000     0.759160000000     0.473843   
C336     C      0.640090000000     0.827000000000     0.763870000000     0.473688   
C337     C      0.376530000000     0.453320000000     0.019550000000     0.468772   
C338     C      0.381520000000     0.332380000000     0.009070000000     0.467921   
C339     C      0.439060000000     0.395970000000     0.507530000000     0.474969   
C340     C      0.318880000000     0.390980000000     0.521730000000     0.47485    
C341     C      0.371320000000     0.447630000000     0.756990000000     0.474608   
C342     C      0.384070000000     0.327100000000     0.752500000000     0.475066   
C343     C      0.438050000000     0.393870000000     0.747020000000     0.4715     
C344     C      0.318220000000     0.381200000000     0.762470000000     0.472521   
C345     C      0.391770000000     0.582300000000     0.525900000000     0.473188   
C346     C      0.378000000000     0.702970000000     0.527460000000     0.472653   
C347     C      0.444800000000     0.649730000000     0.024730000000     0.467588   
C348     C      0.324300000000     0.634680000000     0.028430000000     0.471653   
C349     C      0.387640000000     0.576490000000     0.757180000000     0.474487   
C350     C      0.388860000000     0.697800000000     0.757070000000     0.47445    
C351     C      0.448970000000     0.635650000000     0.757730000000     0.474424   
C352     C      0.327770000000     0.638520000000     0.757100000000     0.474667   
C353     C      0.566330000000     0.375190000000     0.000090000000     0.470588   
C354     C      0.687440000000     0.379080000000     0.001090000000     0.46992    
C355     C      0.624070000000     0.437950000000     0.508730000000     0.471136   
C356     C      0.628910000000     0.317660000000     0.492270000000     0.473372   
C357     C      0.568230000000     0.381120000000     0.738100000000     0.471735   
C358     C      0.689680000000     0.385640000000     0.737450000000     0.473512   
C359     C      0.628430000000     0.443860000000     0.739130000000     0.472673   
C360     C      0.630960000000     0.322400000000     0.736020000000     0.474223   
C361     C      0.634340000000     0.569160000000     0.018770000000     0.466147   
C362     C      0.636360000000     0.690630000000     0.023190000000     0.467106   
C363     C      0.573760000000     0.630920000000     0.520620000000     0.471543   
C364     C      0.695080000000     0.629480000000     0.521510000000     0.473741   
C365     C      0.629390000000     0.575420000000     0.746560000000     0.4725     
C366     C      0.645380000000     0.695100000000     0.758630000000     0.472713   
C367     C      0.578970000000     0.644020000000     0.755410000000     0.473213   
C368     C      0.698950000000     0.626490000000     0.749400000000     0.472117   
C369     C      0.129560000000     0.385170000000     0.587230000000     0.473593   
C370     C      0.126550000000     0.384930000000     0.966190000000     0.47218    
C371     C      0.067240000000     0.385130000000     0.029150000000     0.474965   
C372     C      0.188400000000     0.384250000000     0.024090000000     0.475251   
C373     C      0.120140000000     0.386760000000     0.835930000000     0.473444   
C374     C      0.140700000000     0.386380000000     0.716610000000     0.473672   
C375     C      0.070500000000     0.384930000000     0.766440000000     0.473152   
C376     C      0.190510000000     0.389100000000     0.785080000000     0.473473   
C377     C      0.877640000000     0.384170000000     0.950830000000     0.47206    
C378     C      0.878470000000     0.387550000000     0.571900000000     0.473011   
C379     C      0.938670000000     0.385430000000     0.510210000000     0.475488   
C380     C      0.817380000000     0.387100000000     0.512430000000     0.475429   
C381     C      0.890010000000     0.386840000000     0.701430000000     0.473003   
C382     C      0.870010000000     0.382850000000     0.820810000000     0.473029   
C383     C      0.940210000000     0.384580000000     0.770800000000     0.473173   
C384     C      0.820210000000     0.384310000000     0.752060000000     0.47347    
C385     C      0.881630000000     0.412980000000     0.899400000000    -0.00838781 
C386     C      0.881260000000     0.352480000000     0.900730000000    -0.00904716 
C387     C      0.858800000000     0.412180000000     0.871020000000    -0.00762772 
C388     C      0.859910000000     0.352210000000     0.870860000000    -0.0086836  
C389     C      0.875070000000     0.418210000000     0.622710000000    -0.00904541 
C390     C      0.876430000000     0.357770000000     0.622960000000    -0.00791702 
C391     C      0.897780000000     0.418460000000     0.651570000000    -0.00853772 
C392     C      0.900410000000     0.358550000000     0.650410000000    -0.00826799 
C393     C      0.019610000000     0.414040000000     0.756370000000    -0.00876535 
C394     C      0.020210000000     0.353880000000     0.758360000000    -0.00934357 
C395     C      0.990890000000     0.414660000000     0.778980000000    -0.00722293 
C396     C      0.990790000000     0.354460000000     0.780320000000    -0.00807347 
C397     C      0.131360000000     0.415640000000     0.915810000000    -0.00830363 
C398     C      0.129680000000     0.355150000000     0.915100000000    -0.00851349 
C399     C      0.109830000000     0.416470000000     0.886290000000    -0.00840186 
C400     C      0.108110000000     0.356530000000     0.885600000000    -0.00830675 
C401     C      0.150300000000     0.416020000000     0.666070000000    -0.0080044  
C402     C      0.150830000000     0.356070000000     0.666560000000    -0.00824836 
C403     C      0.127100000000     0.415890000000     0.637820000000    -0.00852643 
C404     C      0.127510000000     0.355360000000     0.638380000000    -0.00861833 
C405     C      0.015990000000     0.355110000000     0.532940000000    -0.00881786 
C406     C      0.016100000000     0.415310000000     0.032810000000    -0.0077844  
C407     C      0.989750000000     0.355020000000     0.507470000000    -0.00709989 
C408     C      0.990020000000     0.415280000000     0.007200000000    -0.0113688  
C409     C      0.771750000000     0.359380000000     0.729730000000    -0.00688187 
C410     C      0.768330000000     0.402090000000     0.772490000000    -0.00824259 
C411     C      0.742230000000     0.373790000000     0.713430000000    -0.00708534 
C412     C      0.736860000000     0.413910000000     0.757990000000    -0.00688838 
C413     C      0.614400000000     0.523870000000     0.771740000000    -0.00819377 
C414     C      0.618090000000     0.527970000000     0.712300000000    -0.00848084 
C415     C      0.634080000000     0.493150000000     0.771230000000    -0.00773315 
C416     C      0.635930000000     0.495750000000     0.711090000000    -0.00910714 
C417     C      0.737130000000     0.352780000000     0.518620000000    -0.00756649 
C418     C      0.738650000000     0.398710000000     0.979420000000    -0.00643801 
C419     C      0.767170000000     0.365860000000     0.534920000000    -0.00738893 
C420     C      0.766670000000     0.413480000000     0.997800000000    -0.000560988
C421     C      0.636960000000     0.520090000000     0.985780000000    -0.00580537 
C422     C      0.641140000000     0.516220000000     0.545520000000    -0.00937954 
C423     C      0.614180000000     0.491600000000     0.985530000000    -0.00614339 
C424     C      0.620620000000     0.485480000000     0.544700000000    -0.00897524 
C425     C      0.529470000000     0.653400000000     0.787210000000    -0.0085863  
C426     C      0.527650000000     0.654090000000     0.727500000000    -0.00765472 
C427     C      0.500060000000     0.631310000000     0.787890000000    -0.00864346 
C428     C      0.499760000000     0.630510000000     0.727760000000    -0.0079779  
C429     C      0.495090000000     0.658050000000     0.993730000000    -0.00661292 
C430     C      0.496840000000     0.652820000000     0.553190000000    -0.00795521 
C431     C      0.522280000000     0.633380000000     0.990690000000    -0.00696759 
C432     C      0.522610000000     0.626980000000     0.550430000000    -0.0085162  
C433     C      0.240490000000     0.416180000000     0.769940000000    -0.00758457 
C434     C      0.242070000000     0.367740000000     0.805790000000    -0.0076571  
C435     C      0.264820000000     0.400530000000     0.747690000000    -0.00690128 
C436     C      0.271230000000     0.355020000000     0.787140000000    -0.00826428 
C437     C      0.515690000000     0.377420000000     0.709790000000    -0.00954741 
C438     C      0.518370000000     0.376880000000     0.769710000000    -0.00759325 
C439     C      0.485970000000     0.399400000000     0.711670000000    -0.00914362 
C440     C      0.491610000000     0.401600000000     0.771160000000    -0.00817841 
C441     C      0.361590000000     0.499130000000     0.728990000000    -0.00774401 
C442     C      0.367390000000     0.498020000000     0.788430000000    -0.00812971 
C443     C      0.386830000000     0.525540000000     0.726740000000    -0.00811932 
C444     C      0.392210000000     0.525010000000     0.786610000000    -0.00863362 
C445     C      0.240140000000     0.358220000000     0.535440000000    -0.00698084 
C446     C      0.236380000000     0.405240000000     0.997580000000     0.000404083
C447     C      0.270500000000     0.372700000000     0.550070000000    -0.00727393 
C448     C      0.268010000000     0.418150000000     0.010470000000    -0.0159231  
C449     C      0.514270000000     0.373730000000     0.970850000000    -0.0068399  
C450     C      0.515900000000     0.370990000000     0.530660000000    -0.00705829 
C451     C      0.487630000000     0.399230000000     0.972960000000    -0.00679566 
C452     C      0.492520000000     0.398820000000     0.532660000000    -0.007459   
C453     C      0.398800000000     0.532240000000     0.994870000000    -0.00591899 
C454     C      0.397470000000     0.530260000000     0.554610000000    -0.00880684 
C455     C      0.373050000000     0.506390000000     0.993280000000    -0.00565611 
C456     C      0.373300000000     0.502490000000     0.553160000000    -0.00881533 
C457     C      0.615060000000     0.743790000000     0.747990000000    -0.00738572 
C458     C      0.660300000000     0.744410000000     0.787610000000    -0.00712699 
C459     C      0.623670000000     0.777610000000     0.737270000000    -0.00801489 
C460     C      0.670470000000     0.777620000000     0.775480000000    -0.00725298 
C461     C      0.623040000000     0.741820000000     0.549230000000    -0.00716889 
C462     C      0.665150000000     0.739120000000     0.506350000000    -0.00782979 
C463     C      0.609540000000     0.772400000000     0.034280000000    -0.00657994 
C464     C      0.654690000000     0.772090000000     0.994000000000    -0.00106645 
C465     C      0.662290000000     0.871400000000     0.900310000000    -0.00773956 
C466     C      0.602230000000     0.869350000000     0.900490000000    -0.00870932 
C467     C      0.661600000000     0.896540000000     0.873920000000    -0.0080399  
C468     C      0.601460000000     0.893160000000     0.872550000000    -0.00855666 
C469     C      0.666830000000     0.898970000000     0.621070000000    -0.00852414 
C470     C      0.606720000000     0.898000000000     0.622340000000    -0.00801374 
C471     C      0.667840000000     0.878070000000     0.651210000000    -0.00875761 
C472     C      0.607630000000     0.875610000000     0.651030000000    -0.00769504 
C473     C      0.654380000000     0.273190000000     0.713460000000    -0.00653466 
C474     C      0.611980000000     0.270360000000     0.756400000000    -0.00733462 
C475     C      0.637320000000     0.246570000000     0.695010000000    -0.00667994 
C476     C      0.593410000000     0.245760000000     0.736370000000    -0.00796743 
C477     C      0.596710000000     0.021450000000     0.729250000000    -0.00923779 
C478     C      0.656810000000     0.024880000000     0.730320000000    -0.0081648  
C479     C      0.597630000000     0.997530000000     0.757000000000    -0.00733695 
C480     C      0.657590000000     0.001410000000     0.758340000000    -0.00927901 
C481     C      0.636310000000     0.243800000000     0.945860000000    -0.00595774 
C482     C      0.590920000000     0.241040000000     0.985340000000     0.000564956
C483     C      0.652120000000     0.270370000000     0.465610000000    -0.00768061 
C484     C      0.608600000000     0.264440000000     0.507280000000    -0.0072304  
C485     C      0.650770000000     0.146810000000     0.833000000000    -0.008316   
C486     C      0.590650000000     0.144720000000     0.833050000000    -0.00801717 
C487     C      0.651590000000     0.122070000000     0.859950000000    -0.00845634 
C488     C      0.591450000000     0.120040000000     0.860050000000    -0.00845189 
C489     C      0.650930000000     0.145180000000     0.582150000000    -0.00838755 
C490     C      0.590780000000     0.143570000000     0.581830000000    -0.00798766 
C491     C      0.651280000000     0.122870000000     0.611130000000    -0.00854314 
C492     C      0.591100000000     0.121460000000     0.610960000000    -0.00866997 
C493     C      0.600210000000     0.993600000000     0.004030000000    -0.0105005  
C494     C      0.660360000000     0.996120000000     0.503960000000    -0.0074951  
C495     C      0.599100000000     0.017680000000     0.976640000000    -0.00528935 
C496     C      0.659140000000     0.021410000000     0.477390000000    -0.00928066 
C497     C      0.248450000000     0.605550000000     0.765130000000    -0.00678182 
C498     C      0.246800000000     0.649730000000     0.723960000000    -0.00761198 
C499     C      0.276830000000     0.621930000000     0.781300000000    -0.00695507 
C500     C      0.278140000000     0.663350000000     0.737350000000    -0.00772581 
C501     C      0.278410000000     0.602300000000     0.010510000000    -0.015033   
C502     C      0.270860000000     0.645970000000     0.551130000000    -0.0079208  
C503     C      0.248150000000     0.613090000000     0.992950000000    -0.000920824
C504     C      0.242180000000     0.658950000000     0.532140000000    -0.00730445 
C505     C      0.132100000000     0.662290000000     0.860020000000    -0.00908056 
C506     C      0.132680000000     0.601840000000     0.861200000000    -0.00835154 
C507     C      0.153570000000     0.662840000000     0.889830000000    -0.00894716 
C508     C      0.155620000000     0.602870000000     0.889510000000    -0.00788761 
C509     C      0.114300000000     0.655750000000     0.610430000000    -0.00816251 
C510     C      0.118600000000     0.595910000000     0.609410000000    -0.00844419 
C511     C      0.138570000000     0.657270000000     0.637590000000    -0.00793157 
C512     C      0.141680000000     0.596920000000     0.637940000000    -0.00897414 
C513     C      0.746060000000     0.594590000000     0.765520000000    -0.00749295 
C514     C      0.751390000000     0.638630000000     0.724960000000    -0.008052   
C515     C      0.777470000000     0.605150000000     0.781290000000    -0.00849692 
C516     C      0.780650000000     0.651790000000     0.742730000000    -0.00711044 
C517     C      0.024270000000     0.657180000000     0.751590000000    -0.00795744 
C518     C      0.025290000000     0.596920000000     0.748970000000    -0.00790923 
C519     C      0.001240000000     0.655330000000     0.779920000000    -0.00901197 
C520     C      0.001940000000     0.595370000000     0.777120000000    -0.00943168 
C521     C      0.745600000000     0.611260000000     0.997810000000     0.000668271
C522     C      0.745020000000     0.653730000000     0.540940000000    -0.00785683 
C523     C      0.774160000000     0.595260000000     0.014050000000    -0.01564    
C524     C      0.776620000000     0.640390000000     0.554030000000    -0.00744154 
C525     C      0.888140000000     0.597080000000     0.880060000000    -0.00804925 
C526     C      0.884910000000     0.657670000000     0.879610000000    -0.0089253  
C527     C      0.865890000000     0.596390000000     0.908790000000    -0.00725409 
C528     C      0.864120000000     0.656270000000     0.909780000000    -0.00815311 
C529     C      0.890470000000     0.652330000000     0.629600000000    -0.00765995 
C530     C      0.888280000000     0.591660000000     0.629340000000    -0.00875035 
C531     C      0.911710000000     0.651130000000     0.659080000000    -0.00781825 
C532     C      0.908300000000     0.591320000000     0.659990000000    -0.00796827 
C533     C      0.996130000000     0.657310000000     0.507750000000    -0.00772104 
C534     C      0.997730000000     0.596770000000     0.009340000000    -0.0111771  
C535     C      0.022960000000     0.656920000000     0.482760000000    -0.00920774 
C536     C      0.024330000000     0.597110000000     0.984160000000    -0.00545388 
C537     C      0.408410000000     0.277680000000     0.773450000000    -0.00697713 
C538     C      0.363750000000     0.275580000000     0.732550000000    -0.00793856 
C539     C      0.426010000000     0.251070000000     0.755430000000    -0.00758098 
C540     C      0.380140000000     0.246970000000     0.716700000000    -0.00632145 
C541     C      0.424470000000     0.257390000000     0.005050000000    -0.0155253  
C542     C      0.377270000000     0.254540000000     0.967900000000    -0.00868109 
C543     C      0.406660000000     0.281730000000     0.525880000000    -0.00736287 
C544     C      0.360960000000     0.281920000000     0.486160000000    -0.00820584 
C545     C      0.430420000000     0.127750000000     0.889360000000    -0.00869368 
C546     C      0.370360000000     0.127220000000     0.889300000000    -0.0088959  
C547     C      0.430280000000     0.149340000000     0.859750000000    -0.00895108 
C548     C      0.370040000000     0.148930000000     0.859750000000    -0.00901725 
C549     C      0.429860000000     0.159270000000     0.610980000000    -0.00853085 
C550     C      0.369860000000     0.157740000000     0.611090000000    -0.00874828 
C551     C      0.430780000000     0.133160000000     0.636690000000    -0.00860466 
C552     C      0.370580000000     0.131550000000     0.636760000000    -0.00881173 
C553     C      0.404120000000     0.748390000000     0.731240000000    -0.0068531  
C554     C      0.363900000000     0.747440000000     0.776220000000    -0.00799165 
C555     C      0.419310000000     0.778530000000     0.745320000000    -0.00658363 
C556     C      0.376350000000     0.779990000000     0.787660000000    -0.00780532 
C557     C      0.368200000000     0.027160000000     0.754090000000    -0.00804694 
C558     C      0.428630000000     0.026000000000     0.753820000000    -0.00795459 
C559     C      0.368080000000     0.001760000000     0.780420000000    -0.0090757  
C560     C      0.427980000000     0.000610000000     0.780160000000    -0.00924152 
C561     C      0.372460000000     0.781900000000     0.990750000000     0.000152206
C562     C      0.414860000000     0.779540000000     0.033660000000    -0.00685357 
C563     C      0.355160000000     0.753410000000     0.506210000000    -0.00764189 
C564     C      0.395210000000     0.754120000000     0.551280000000    -0.00788781 
C565     C      0.368350000000     0.875110000000     0.878430000000    -0.00726316 
C566     C      0.428370000000     0.873510000000     0.877740000000    -0.00846421 
C567     C      0.369040000000     0.899970000000     0.905010000000    -0.00810492 
C568     C      0.429290000000     0.896900000000     0.906010000000    -0.00872081 
C569     C      0.362630000000     0.904720000000     0.657560000000    -0.00869663 
C570     C      0.422650000000     0.907010000000     0.656790000000    -0.00821553 
C571     C      0.363020000000     0.883620000000     0.627500000000    -0.00894637 
C572     C      0.423310000000     0.884470000000     0.628170000000    -0.00780902 
C573     C      0.429180000000     0.035390000000     0.024310000000    -0.00693113 
C574     C      0.369250000000     0.036390000000     0.525870000000    -0.00812447 
C575     C      0.428450000000     0.002520000000     0.008040000000    -0.0143781  
C576     C      0.367970000000     0.003790000000     0.509250000000    -0.00943076 
H1       H      0.906560000000     0.349350000000     0.392960000000     0.0347953  
H2       H      0.906580000000     0.414900000000     0.390240000000     0.0363     
H3       H      0.862410000000     0.434180000000     0.356490000000     0.0377545  
H4       H      0.874900000000     0.331520000000     0.415840000000     0.0381695  
H5       H      0.865730000000     0.330700000000     0.356300000000     0.0376762  
H6       H      0.834530000000     0.350080000000     0.378720000000     0.0340573  
H7       H      0.876500000000     0.434880000000     0.413640000000     0.0380254  
H8       H      0.833810000000     0.412680000000     0.380280000000     0.0334861  
H9       H      0.851940000000     0.355150000000     0.133150000000     0.0346521  
H10      H      0.850070000000     0.420360000000     0.131680000000     0.0355447  
H11      H      0.892250000000     0.439650000000     0.166690000000     0.0382921  
H12      H      0.881340000000     0.336180000000     0.108190000000     0.0380455  
H13      H      0.897820000000     0.336260000000     0.164740000000     0.0379802  
H14      H      0.925010000000     0.358780000000     0.140160000000     0.0348708  
H15      H      0.880100000000     0.439640000000     0.107730000000     0.0379879  
H16      H      0.922690000000     0.421300000000     0.142540000000     0.0341525  
H17      H      0.011720000000     0.351120000000     0.233350000000     0.0347467  
H18      H      0.010440000000     0.414620000000     0.231440000000     0.0350127  
H19      H      0.976230000000     0.436300000000     0.273790000000     0.0378131  
H20      H      0.035090000000     0.332590000000     0.264310000000     0.0376196  
H21      H      0.976100000000     0.332720000000     0.275680000000     0.0380191  
H22      H      0.999330000000     0.353180000000     0.305430000000     0.0346976  
H23      H      0.034070000000     0.436100000000     0.260140000000     0.0384254  
H24      H      0.000010000000     0.416810000000     0.303830000000     0.0347672  
H25      H      0.154880000000     0.351910000000     0.407050000000     0.0350807  
H26      H      0.156710000000     0.417590000000     0.407820000000     0.034369   
H27      H      0.115560000000     0.438240000000     0.372070000000     0.037787   
H28      H      0.122950000000     0.333770000000     0.429480000000     0.0374728  
H29      H      0.112370000000     0.334770000000     0.370880000000     0.038157   
H30      H      0.082740000000     0.355870000000     0.393740000000     0.0341018  
H31      H      0.126000000000     0.437080000000     0.430650000000     0.0377764  
H32      H      0.084510000000     0.418470000000     0.394380000000     0.0345082  
H33      H      0.175670000000     0.355020000000     0.156970000000     0.0339822  
H34      H      0.175140000000     0.417340000000     0.156510000000     0.0339391  
H35      H      0.132050000000     0.437260000000     0.122740000000     0.0383929  
H36      H      0.146960000000     0.334360000000     0.181470000000     0.0378182  
H37      H      0.132780000000     0.333810000000     0.123670000000     0.03792    
H38      H      0.102770000000     0.352790000000     0.147920000000     0.0354658  
H39      H      0.146100000000     0.437910000000     0.180610000000     0.0375948  
H40      H      0.102290000000     0.418300000000     0.147260000000     0.0355523  
H41      H      0.004310000000     0.416940000000     0.556560000000     0.0351596  
H42      H      0.004290000000     0.353620000000     0.056750000000     0.0342919  
H43      H      0.974490000000     0.333430000000     0.010800000000     0.0381257  
H44      H      0.031280000000     0.437000000000     0.529720000000     0.0383148  
H45      H      0.974980000000     0.437080000000     0.510160000000     0.0378602  
H46      H      0.001830000000     0.416790000000     0.483450000000     0.0343164  
H47      H      0.031080000000     0.333350000000     0.029950000000     0.03722    
H48      H      0.001410000000     0.353130000000     0.983670000000     0.0379181  
H49      H      0.762440000000     0.385920000000     0.292770000000     0.0345895  
H50      H      0.763970000000     0.339250000000     0.245360000000     0.0376167  
H51      H      0.729000000000     0.354530000000     0.200570000000     0.0326535  
H52      H      0.781720000000     0.422860000000     0.282520000000     0.0360269  
H53      H      0.720480000000     0.421940000000     0.277370000000     0.0347987  
H54      H      0.742280000000     0.435260000000     0.243000000000     0.0340148  
H55      H      0.788210000000     0.349600000000     0.211220000000     0.0331324  
H56      H      0.750240000000     0.392000000000     0.195740000000     0.0375537  
H57      H      0.592140000000     0.523210000000     0.208490000000     0.0341565  
H58      H      0.588560000000     0.517300000000     0.270880000000     0.0349433  
H59      H      0.626500000000     0.478050000000     0.291760000000     0.0379432  
H60      H      0.626560000000     0.543290000000     0.192290000000     0.037769   
H61      H      0.628440000000     0.482680000000     0.189190000000     0.0384334  
H62      H      0.662020000000     0.500760000000     0.208950000000     0.0350848  
H63      H      0.618800000000     0.536460000000     0.294700000000     0.0382584  
H64      H      0.659740000000     0.499460000000     0.274760000000     0.0346094  
H65      H      0.748310000000     0.383930000000     0.459530000000     0.0367389  
H66      H      0.744740000000     0.334070000000     0.001290000000     0.032659   
H67      H      0.782300000000     0.345540000000     0.043250000000     0.0359792  
H68      H      0.723740000000     0.418290000000     0.469110000000     0.0350013  
H69      H      0.781870000000     0.427380000000     0.480910000000     0.035374   
H70      H      0.757000000000     0.430250000000     0.516070000000     0.0371396  
H71      H      0.721610000000     0.340860000000     0.036670000000     0.0360901  
H72      H      0.759480000000     0.379460000000     0.056430000000     0.0343301  
H73      H      0.666800000000     0.509030000000     0.546080000000     0.0349998  
H74      H      0.661730000000     0.511120000000     0.481630000000     0.0346499  
H75      H      0.616230000000     0.479290000000     0.462090000000     0.0383997  
H76      H      0.635990000000     0.529400000000     0.068010000000     0.0383949  
H77      H      0.629170000000     0.468880000000     0.063650000000     0.0377401  
H78      H      0.595490000000     0.492170000000     0.050510000000     0.0338723  
H79      H      0.630620000000     0.536120000000     0.465550000000     0.0382574  
H80      H      0.589230000000     0.500770000000     0.987710000000     0.0362719  
H81      H      0.517720000000     0.678860000000     0.227030000000     0.0336282  
H82      H      0.520970000000     0.678600000000     0.289380000000     0.0342935  
H83      H      0.485370000000     0.637230000000     0.309220000000     0.0382851  
H84      H      0.541720000000     0.650550000000     0.205260000000     0.0379581  
H85      H      0.484810000000     0.634850000000     0.206240000000     0.038202   
H86      H      0.509580000000     0.605760000000     0.226100000000     0.0361986  
H87      H      0.544800000000     0.648140000000     0.308260000000     0.0380246  
H88      H      0.508610000000     0.606190000000     0.290650000000     0.0346615  
H89      H      0.508930000000     0.676440000000     0.056010000000     0.0335789  
H90      H      0.505990000000     0.682400000000     0.493920000000     0.0346471  
H91      H      0.537400000000     0.639790000000     0.469810000000     0.0383269  
H92      H      0.482450000000     0.648380000000     0.075060000000     0.0380134  
H93      H      0.537900000000     0.627840000000     0.072120000000     0.038515   
H94      H      0.510610000000     0.603150000000     0.049870000000     0.0358149  
H95      H      0.479380000000     0.656390000000     0.472370000000     0.0382458  
H96      H      0.511350000000     0.609540000000     0.485820000000     0.0349716  
H97      H      0.251240000000     0.380450000000     0.327250000000     0.0332642  
H98      H      0.253490000000     0.431420000000     0.287490000000     0.0368846  
H99      H      0.278450000000     0.419640000000     0.235010000000     0.0346887  
H100     H      0.227270000000     0.347280000000     0.314350000000     0.0358895  
H101     H      0.288940000000     0.344550000000     0.304040000000     0.0352962  
H102     H      0.262790000000     0.335170000000     0.271530000000     0.0332739  
H103     H      0.224360000000     0.431780000000     0.255570000000     0.0361658  
H104     H      0.251850000000     0.385830000000     0.229690000000     0.0379342  
H105     H      0.507550000000     0.352550000000     0.271550000000     0.035046   
H106     H      0.507220000000     0.352270000000     0.207200000000     0.0344096  
H107     H      0.469250000000     0.393100000000     0.191990000000     0.0375079  
H108     H      0.534190000000     0.380320000000     0.290770000000     0.0385852  
H109     H      0.478910000000     0.399120000000     0.294340000000     0.0385835  
H110     H      0.502520000000     0.425940000000     0.270410000000     0.035759   
H111     H      0.529590000000     0.383520000000     0.187980000000     0.0377137  
H112     H      0.494030000000     0.424510000000     0.207700000000     0.0342373  
H113     H      0.343420000000     0.509020000000     0.292320000000     0.0338634  
H114     H      0.337590000000     0.510680000000     0.230430000000     0.0343286  
H115     H      0.381320000000     0.540890000000     0.205750000000     0.0384749  
H116     H      0.372830000000     0.482570000000     0.309360000000     0.0375265  
H117     H      0.390230000000     0.539990000000     0.308460000000     0.0383246  
H118     H      0.416490000000     0.513980000000     0.286490000000     0.0352526  
H119     H      0.362220000000     0.484520000000     0.206820000000     0.0385853  
H120     H      0.410550000000     0.514110000000     0.222550000000     0.0358994  
H121     H      0.241600000000     0.391230000000     0.475600000000     0.0345318  
H122     H      0.247210000000     0.340670000000     0.016720000000     0.0354785  
H123     H      0.286270000000     0.353030000000     0.058810000000     0.0341082  
H124     H      0.220710000000     0.425650000000     0.490550000000     0.0359371  
H125     H      0.281550000000     0.429980000000     0.490850000000     0.0361597  
H126     H      0.262450000000     0.436880000000     0.528550000000     0.0343622  
H127     H      0.226570000000     0.345250000000     0.054320000000     0.0341692  
H128     H      0.263580000000     0.387950000000     0.070740000000     0.0368046  
H129     H      0.502030000000     0.348190000000     0.531020000000     0.034723   
H130     H      0.502650000000     0.349890000000     0.468000000000     0.0342919  
H131     H      0.470640000000     0.395830000000     0.452820000000     0.0376117  
H132     H      0.531560000000     0.371280000000     0.052110000000     0.038581   
H133     H      0.479290000000     0.397340000000     0.055620000000     0.0389893  
H134     H      0.506410000000     0.421610000000     0.032710000000     0.0355732  
H135     H      0.528980000000     0.378240000000     0.449200000000     0.0377983  
H136     H      0.498940000000     0.423220000000     0.970120000000     0.0345501  
H137     H      0.421910000000     0.519800000000     0.056560000000     0.0341392  
H138     H      0.422670000000     0.520370000000     0.493910000000     0.0356116  
H139     H      0.375990000000     0.492760000000     0.470670000000     0.0383682  
H140     H      0.393010000000     0.544580000000     0.076530000000     0.0380859  
H141     H      0.377760000000     0.486000000000     0.073530000000     0.0381034  
H142     H      0.348840000000     0.512670000000     0.056150000000     0.0341401  
H143     H      0.396660000000     0.547950000000     0.473550000000     0.0382467  
H144     H      0.349200000000     0.518310000000     0.492590000000     0.0341994  
H145     H      0.644410000000     0.747510000000     0.308710000000     0.0371714  
H146     H      0.595750000000     0.745600000000     0.266220000000     0.0343572  
H147     H      0.601300000000     0.790780000000     0.231140000000     0.0367035  
H148     H      0.681910000000     0.730710000000     0.295190000000     0.0329025  
H149     H      0.681050000000     0.791500000000     0.295570000000     0.0340923  
H150     H      0.689210000000     0.774520000000     0.256850000000     0.0371993  
H151     H      0.605020000000     0.730280000000     0.227370000000     0.0361272  
H152     H      0.638130000000     0.775780000000     0.215040000000     0.0346752  
H153     H      0.685990000000     0.742710000000     0.022510000000     0.0336319  
H154     H      0.640420000000     0.748510000000     0.068230000000     0.0369456  
H155     H      0.598640000000     0.787450000000     0.553360000000     0.0340232  
H156     H      0.673620000000     0.724210000000     0.986000000000     0.040141   
H157     H      0.676250000000     0.785980000000     0.486710000000     0.0364421  
H158     H      0.640020000000     0.768340000000     0.472150000000     0.0343601  
H159     H      0.603110000000     0.727980000000     0.060310000000     0.034294   
H160     H      0.590390000000     0.765790000000     0.517010000000     0.0383594  
H161     H      0.601230000000     0.844650000000     0.390520000000     0.0349477  
H162     H      0.664270000000     0.847320000000     0.389030000000     0.0342172  
H163     H      0.683830000000     0.894300000000     0.359470000000     0.0381498  
H164     H      0.580530000000     0.872940000000     0.415470000000     0.0380984  
H165     H      0.580540000000     0.887540000000     0.357110000000     0.0383106  
H166     H      0.597760000000     0.917620000000     0.382490000000     0.0347545  
H167     H      0.684060000000     0.875140000000     0.415110000000     0.0381898  
H168     H      0.661590000000     0.920720000000     0.385150000000     0.0358162  
H169     H      0.605050000000     0.923120000000     0.131170000000     0.0354048  
H170     H      0.668570000000     0.924510000000     0.128540000000     0.0341525  
H171     H      0.688990000000     0.885090000000     0.165760000000     0.0377508  
H172     H      0.584730000000     0.892860000000     0.108260000000     0.0379183  
H173     H      0.585680000000     0.879640000000     0.165510000000     0.038096   
H174     H      0.606980000000     0.850440000000     0.142220000000     0.0342183  
H175     H      0.688180000000     0.893490000000     0.106180000000     0.0379603  
H176     H      0.671210000000     0.852690000000     0.143740000000     0.0345895  
H177     H      0.627550000000     0.257260000000     0.273580000000     0.0372024  
H178     H      0.673600000000     0.261910000000     0.228030000000     0.0347115  
H179     H      0.655290000000     0.231120000000     0.182810000000     0.0348311  
H180     H      0.594740000000     0.285380000000     0.270110000000     0.0336242  
H181     H      0.579780000000     0.229580000000     0.252570000000     0.0347385  
H182     H      0.576070000000     0.258810000000     0.220930000000     0.0370941  
H183     H      0.666130000000     0.289990000000     0.196450000000     0.0337578  
H184     H      0.622390000000     0.258060000000     0.176230000000     0.0348205  
H185     H      0.659770000000     0.010950000000     0.207880000000     0.0348845  
H186     H      0.595990000000     0.007620000000     0.206560000000     0.0350892  
H187     H      0.577050000000     0.980760000000     0.254710000000     0.0378075  
H188     H      0.677540000000     0.041500000000     0.232370000000     0.037884   
H189     H      0.680300000000     0.987520000000     0.257400000000     0.0385966  
H190     H      0.657680000000     0.015560000000     0.280850000000     0.034858   
H191     H      0.574220000000     0.035650000000     0.230820000000     0.0382629  
H192     H      0.594550000000     0.011140000000     0.279620000000     0.0343172  
H193     H      0.574450000000     0.254890000000     0.469660000000     0.0369097  
H194     H      0.621880000000     0.255480000000     0.426810000000     0.0341755  
H195     H      0.663370000000     0.288270000000     0.449400000000     0.035661   
H196     H      0.576440000000     0.224260000000     0.000150000000     0.0308799  
H197     H      0.590730000000     0.278400000000     0.021290000000     0.0357423  
H198     H      0.623770000000     0.250510000000     0.024160000000     0.0379874  
H199     H      0.655050000000     0.229050000000     0.433960000000     0.0352406  
H200     H      0.671670000000     0.259300000000     0.979880000000     0.0354124  
H201     H      0.588240000000     0.168960000000     0.343880000000     0.0344113  
H202     H      0.651570000000     0.171160000000     0.343830000000     0.0346216  
H203     H      0.673180000000     0.126400000000     0.374870000000     0.038295   
H204     H      0.569060000000     0.140410000000     0.318130000000     0.0374998  
H205     H      0.569670000000     0.123030000000     0.375040000000     0.0384258  
H206     H      0.590580000000     0.095680000000     0.349250000000     0.0352493  
H207     H      0.672560000000     0.143870000000     0.318010000000     0.0378246  
H208     H      0.654010000000     0.097840000000     0.349090000000     0.0348107  
H209     H      0.588270000000     0.168700000000     0.090390000000     0.0338183  
H210     H      0.652020000000     0.170380000000     0.090820000000     0.0342238  
H211     H      0.672760000000     0.128430000000     0.125810000000     0.0381307  
H212     H      0.569340000000     0.137950000000     0.067120000000     0.0370594  
H213     H      0.569330000000     0.126200000000     0.125510000000     0.0382702  
H214     H      0.589810000000     0.096220000000     0.102430000000     0.0350572  
H215     H      0.672750000000     0.140610000000     0.067630000000     0.0372036  
H216     H      0.653710000000     0.097770000000     0.102440000000     0.034681   
H217     H      0.661930000000     0.008830000000     0.027250000000     0.0342194  
H218     H      0.598020000000     0.007010000000     0.026880000000     0.0347427  
H219     H      0.576450000000     0.031610000000     0.478340000000     0.0386277  
H220     H      0.682530000000     0.981610000000     0.001110000000     0.0375425  
H221     H      0.679700000000     0.038110000000     0.980360000000     0.0381944  
H222     H      0.662180000000     0.008920000000     0.454120000000     0.0344388  
H223     H      0.579150000000     0.977390000000     0.502070000000     0.0380556  
H224     H      0.598640000000     0.004140000000     0.453770000000     0.0355068  
H225     H      0.252860000000     0.634470000000     0.203040000000     0.034067   
H226     H      0.257610000000     0.587180000000     0.248170000000     0.0374912  
H227     H      0.291730000000     0.603410000000     0.293410000000     0.0349538  
H228     H      0.231520000000     0.669710000000     0.215080000000     0.0359221  
H229     H      0.293290000000     0.672330000000     0.217410000000     0.0360766  
H230     H      0.272060000000     0.684360000000     0.252550000000     0.0331579  
H231     H      0.233670000000     0.593300000000     0.283600000000     0.0344804  
H232     H      0.267680000000     0.638920000000     0.299630000000     0.0371771  
H233     H      0.261830000000     0.629170000000     0.069700000000     0.0368048  
H234     H      0.271580000000     0.582620000000     0.027090000000     0.0347828  
H235     H      0.235360000000     0.591660000000     0.483560000000     0.0366543  
H236     H      0.283370000000     0.666220000000     0.063150000000     0.0337346  
H237     H      0.224690000000     0.669910000000     0.048980000000     0.0339336  
H238     H      0.250810000000     0.678010000000     0.515660000000     0.0372529  
H239     H      0.295880000000     0.592210000000     0.493120000000     0.0348638  
H240     H      0.255640000000     0.627670000000     0.472010000000     0.0350611  
H241     H      0.107790000000     0.599590000000     0.370460000000     0.0359516  
H242     H      0.106780000000     0.664940000000     0.367900000000     0.034502   
H243     H      0.147420000000     0.684200000000     0.404470000000     0.0376529  
H244     H      0.138010000000     0.580030000000     0.346890000000     0.0377313  
H245     H      0.152310000000     0.580790000000     0.404000000000     0.0382041  
H246     H      0.180580000000     0.602680000000     0.380150000000     0.033777   
H247     H      0.138020000000     0.683410000000     0.344950000000     0.0380047  
H248     H      0.178870000000     0.665490000000     0.381870000000     0.0340606  
H249     H      0.093900000000     0.592420000000     0.118790000000     0.0339829  
H250     H      0.089840000000     0.654870000000     0.120970000000     0.0348659  
H251     H      0.133310000000     0.678780000000     0.152360000000     0.0382343  
H252     H      0.124500000000     0.574830000000     0.094280000000     0.0373228  
H253     H      0.137570000000     0.575340000000     0.152990000000     0.0380677  
H254     H      0.166610000000     0.595620000000     0.128620000000     0.0351837  
H255     H      0.116100000000     0.678050000000     0.096010000000     0.0378981  
H256     H      0.162860000000     0.660460000000     0.127100000000     0.0346434  
H257     H      0.759740000000     0.622020000000     0.205920000000     0.0370206  
H258     H      0.751760000000     0.574920000000     0.248510000000     0.0338936  
H259     H      0.790970000000     0.583560000000     0.289230000000     0.0365506  
H260     H      0.738270000000     0.658880000000     0.213590000000     0.0354541  
H261     H      0.797040000000     0.663410000000     0.225240000000     0.0346527  
H262     H      0.772540000000     0.670350000000     0.260010000000     0.0374685  
H263     H      0.729690000000     0.584490000000     0.283920000000     0.0361448  
H264     H      0.771360000000     0.619090000000     0.303080000000     0.0345353  
H265     H      0.011090000000     0.595950000000     0.226520000000     0.0349722  
H266     H      0.009840000000     0.659570000000     0.229400000000     0.0349916  
H267     H      0.985760000000     0.677020000000     0.280140000000     0.0386354  
H268     H      0.041040000000     0.575430000000     0.249530000000     0.0379166  
H269     H      0.986920000000     0.573460000000     0.274930000000     0.0385196  
H270     H      0.016180000000     0.593300000000     0.299470000000     0.0348642  
H271     H      0.039280000000     0.679070000000     0.253980000000     0.0377777  
H272     H      0.015700000000     0.655470000000     0.302230000000     0.0348029  
H273     H      0.750760000000     0.674590000000     0.525410000000     0.0332717  
H274     H      0.754530000000     0.627660000000     0.478840000000     0.037462   
H275     H      0.788480000000     0.582250000000     0.495750000000     0.0349805  
H276     H      0.730130000000     0.662880000000     0.061000000000     0.0356383  
H277     H      0.792060000000     0.660500000000     0.062320000000     0.0357909  
H278     H      0.770930000000     0.625430000000     0.075260000000     0.0342227  
H279     H      0.730410000000     0.592480000000     0.486480000000     0.0340127  
H280     H      0.765160000000     0.577590000000     0.031810000000     0.0385192  
H281     H      0.910120000000     0.662270000000     0.386930000000     0.0351598  
H282     H      0.913320000000     0.595890000000     0.388720000000     0.0364261  
H283     H      0.870790000000     0.574380000000     0.422940000000     0.0374481  
H284     H      0.876940000000     0.678320000000     0.364810000000     0.0378305  
H285     H      0.868970000000     0.677890000000     0.424540000000     0.0379256  
H286     H      0.838530000000     0.657100000000     0.402360000000     0.0336339  
H287     H      0.883550000000     0.575230000000     0.365570000000     0.0383703  
H288     H      0.840760000000     0.594930000000     0.400010000000     0.0332034  
H289     H      0.862590000000     0.589250000000     0.135990000000     0.0356172  
H290     H      0.865240000000     0.656040000000     0.137350000000     0.0351235  
H291     H      0.908120000000     0.673460000000     0.173120000000     0.0380011  
H292     H      0.894840000000     0.570350000000     0.114780000000     0.0381505  
H293     H      0.901260000000     0.570180000000     0.174570000000     0.0379882  
H294     H      0.933910000000     0.588320000000     0.153240000000     0.0338245  
H295     H      0.897680000000     0.673510000000     0.115150000000     0.0381877  
H296     H      0.937170000000     0.650500000000     0.151180000000     0.0343775  
H297     H      0.009100000000     0.594970000000     0.533290000000     0.035239   
H298     H      0.007160000000     0.661070000000     0.031620000000     0.0350938  
H299     H      0.037470000000     0.679140000000     0.985170000000     0.0383169  
H300     H      0.982960000000     0.574870000000     0.505780000000     0.0381793  
H301     H      0.039840000000     0.575700000000     0.487520000000     0.0379528  
H302     H      0.012950000000     0.595200000000     0.460220000000     0.0344765  
H303     H      0.980180000000     0.678100000000     0.002860000000     0.037628   
H304     H      0.011680000000     0.657230000000     0.958710000000     0.0342239  
H305     H      0.344950000000     0.266190000000     0.248880000000     0.0345644  
H306     H      0.394160000000     0.266700000000     0.293060000000     0.0373594  
H307     H      0.440760000000     0.236990000000     0.272570000000     0.0354478  
H308     H      0.351460000000     0.290240000000     0.214050000000     0.0365584  
H309     H      0.361730000000     0.230240000000     0.207100000000     0.0353028  
H310     H      0.394250000000     0.256120000000     0.196110000000     0.0338451  
H311     H      0.426380000000     0.294210000000     0.284200000000     0.0354428  
H312     H      0.442200000000     0.262230000000     0.237500000000     0.0366102  
H313     H      0.390200000000     0.265240000000     0.447280000000     0.033806   
H314     H      0.439390000000     0.270640000000     0.487430000000     0.0366881  
H315     H      0.424470000000     0.297720000000     0.037640000000     0.0344722  
H316     H      0.358810000000     0.237970000000     0.458130000000     0.0356981  
H317     H      0.348120000000     0.297770000000     0.469040000000     0.0363433  
H318     H      0.342570000000     0.271170000000     0.002120000000     0.0306686  
H319     H      0.440560000000     0.242730000000     0.020420000000     0.0367712  
H320     H      0.393240000000     0.268600000000     0.044730000000     0.0368807  
H321     H      0.368840000000     0.101880000000     0.381130000000     0.0347233  
H322     H      0.432450000000     0.102420000000     0.381280000000     0.0347565  
H323     H      0.451880000000     0.143860000000     0.345210000000     0.0386794  
H324     H      0.348640000000     0.132320000000     0.403790000000     0.0381384  
H325     H      0.348580000000     0.143040000000     0.345170000000     0.0376882  
H326     H      0.367660000000     0.174220000000     0.367860000000     0.0348569  
H327     H      0.452010000000     0.133330000000     0.403880000000     0.0373478  
H328     H      0.432290000000     0.174680000000     0.367820000000     0.0349678  
H329     H      0.367870000000     0.181400000000     0.123220000000     0.0341196  
H330     H      0.430640000000     0.183000000000     0.123100000000     0.0344777  
H331     H      0.452350000000     0.136780000000     0.151830000000     0.037467   
H332     H      0.348180000000     0.154480000000     0.096040000000     0.0374014  
H333     H      0.348860000000     0.133880000000     0.151920000000     0.0381186  
H334     H      0.369410000000     0.107850000000     0.124620000000     0.0348787  
H335     H      0.451660000000     0.157300000000     0.095870000000     0.0384884  
H336     H      0.433240000000     0.109520000000     0.124620000000     0.0352739  
H337     H      0.342240000000     0.751710000000     0.261340000000     0.0331217  
H338     H      0.386370000000     0.755540000000     0.212760000000     0.0373772  
H339     H      0.430050000000     0.793030000000     0.225740000000     0.0334747  
H340     H      0.356190000000     0.732970000000     0.297180000000     0.0363175  
H341     H      0.355860000000     0.794680000000     0.296380000000     0.0359349  
H342     H      0.392410000000     0.775760000000     0.308420000000     0.03377    
H343     H      0.423150000000     0.733760000000     0.219590000000     0.0348397  
H344     H      0.438740000000     0.771380000000     0.262060000000     0.0376026  
H345     H      0.430510000000     0.013530000000     0.230430000000     0.0352925  
H346     H      0.365660000000     0.014760000000     0.230720000000     0.0351718  
H347     H      0.345970000000     0.987040000000     0.278350000000     0.038426   
H348     H      0.450470000000     0.040970000000     0.256840000000     0.0379214  
H349     H      0.449490000000     0.985050000000     0.277910000000     0.0388103  
H350     H      0.429390000000     0.013100000000     0.303590000000     0.0348529  
H351     H      0.346960000000     0.042930000000     0.257250000000     0.038007   
H352     H      0.367350000000     0.014290000000     0.303850000000     0.0344578  
H353     H      0.432740000000     0.767310000000     0.518170000000     0.0371941  
H354     H      0.387810000000     0.772370000000     0.471240000000     0.0342144  
H355     H      0.344830000000     0.737730000000     0.487350000000     0.0361595  
H356     H      0.427900000000     0.794550000000     0.051400000000     0.0338943  
H357     H      0.411770000000     0.738690000000     0.065350000000     0.0360888  
H358     H      0.378570000000     0.766360000000     0.068070000000     0.037021   
H359     H      0.354590000000     0.798260000000     0.479620000000     0.0352507  
H360     H      0.334830000000     0.763070000000     0.020430000000     0.0349593  
H361     H      0.429490000000     0.848670000000     0.387360000000     0.0343416  
H362     H      0.366800000000     0.850880000000     0.389470000000     0.0336206  
H363     H      0.346910000000     0.897430000000     0.419550000000     0.0382994  
H364     H      0.449950000000     0.877350000000     0.362670000000     0.0381162  
H365     H      0.450260000000     0.891020000000     0.421290000000     0.0381307  
H366     H      0.432950000000     0.921510000000     0.396430000000     0.0349137  
H367     H      0.346400000000     0.878720000000     0.363850000000     0.0379502  
H368     H      0.368800000000     0.924260000000     0.394020000000     0.0359788  
H369     H      0.422940000000     0.932130000000     0.147820000000     0.0354539  
H370     H      0.359620000000     0.930100000000     0.149940000000     0.0342413  
H371     H      0.341690000000     0.889510000000     0.112710000000     0.0378106  
H372     H      0.444790000000     0.903280000000     0.171060000000     0.0381268  
H373     H      0.445070000000     0.889800000000     0.113810000000     0.0381612  
H374     H      0.425460000000     0.859430000000     0.137100000000     0.0344464  
H375     H      0.341480000000     0.898170000000     0.172310000000     0.0379201  
H376     H      0.360800000000     0.858150000000     0.135070000000     0.0346972  
H377     H      0.368280000000     0.032330000000     0.052090000000     0.0338359  
H378     H      0.431520000000     0.031580000000     0.050480000000     0.033962   
H379     H      0.449540000000     0.988510000000     0.516340000000     0.0387259  
H380     H      0.347600000000     0.050340000000     0.019060000000     0.0367976  
H381     H      0.346590000000     0.990620000000     0.018170000000     0.0389201  
H382     H      0.364590000000     0.007850000000     0.483230000000     0.0353743  
H383     H      0.450840000000     0.048550000000     0.516120000000     0.037609   
H384     H      0.431070000000     0.006160000000     0.481880000000     0.0355016  
H385     H      0.906560000000     0.349350000000     0.892960000000     0.0350882  
H386     H      0.906580000000     0.414900000000     0.890240000000     0.0365366  
H387     H      0.862410000000     0.434180000000     0.856490000000     0.0378325  
H388     H      0.874900000000     0.331520000000     0.915840000000     0.0386321  
H389     H      0.865730000000     0.330700000000     0.856300000000     0.0378419  
H390     H      0.834530000000     0.350080000000     0.878720000000     0.0342762  
H391     H      0.876500000000     0.434880000000     0.913640000000     0.0383925  
H392     H      0.833810000000     0.412680000000     0.880280000000     0.0336474  
H393     H      0.851940000000     0.355150000000     0.633150000000     0.0347056  
H394     H      0.850070000000     0.420360000000     0.631680000000     0.0355715  
H395     H      0.892250000000     0.439650000000     0.666690000000     0.0382985  
H396     H      0.881340000000     0.336180000000     0.608190000000     0.0381749  
H397     H      0.897820000000     0.336260000000     0.664740000000     0.0380588  
H398     H      0.925010000000     0.358780000000     0.640160000000     0.0349122  
H399     H      0.880100000000     0.439640000000     0.607730000000     0.0380551  
H400     H      0.922690000000     0.421300000000     0.642540000000     0.0341631  
H401     H      0.011720000000     0.351120000000     0.733350000000     0.0347865  
H402     H      0.010440000000     0.414620000000     0.731440000000     0.035012   
H403     H      0.976230000000     0.436300000000     0.773790000000     0.037837   
H404     H      0.035090000000     0.332590000000     0.764310000000     0.0377119  
H405     H      0.976100000000     0.332720000000     0.775680000000     0.0381255  
H406     H      0.999330000000     0.353180000000     0.805430000000     0.0348228  
H407     H      0.034070000000     0.436100000000     0.760140000000     0.038436   
H408     H      0.000010000000     0.416810000000     0.803830000000     0.0348397  
H409     H      0.154880000000     0.351910000000     0.907050000000     0.0353642  
H410     H      0.156710000000     0.417590000000     0.907820000000     0.0345614  
H411     H      0.115560000000     0.438240000000     0.872080000000     0.0378706  
H412     H      0.122950000000     0.333770000000     0.929480000000     0.037974   
H413     H      0.112370000000     0.334770000000     0.870870000000     0.0383478  
H414     H      0.082740000000     0.355870000000     0.893740000000     0.0343701  
H415     H      0.126000000000     0.437080000000     0.930650000000     0.0381377  
H416     H      0.084510000000     0.418470000000     0.894380000000     0.0347314  
H417     H      0.175670000000     0.355020000000     0.656970000000     0.0340304  
H418     H      0.175140000000     0.417340000000     0.656510000000     0.0339775  
H419     H      0.132050000000     0.437260000000     0.622740000000     0.038495   
H420     H      0.146960000000     0.334360000000     0.681470000000     0.0378918  
H421     H      0.132780000000     0.333810000000     0.623670000000     0.0380412  
H422     H      0.102770000000     0.352790000000     0.647920000000     0.0355167  
H423     H      0.146100000000     0.437910000000     0.680610000000     0.0376135  
H424     H      0.102290000000     0.418300000000     0.647260000000     0.0355748  
H425     H      0.004310000000     0.416940000000     0.056560000000     0.0349319  
H426     H      0.004290000000     0.353620000000     0.556750000000     0.0345394  
H427     H      0.974490000000     0.333430000000     0.510810000000     0.0377903  
H428     H      0.031280000000     0.437000000000     0.029720000000     0.0374291  
H429     H      0.974980000000     0.437080000000     0.010160000000     0.0381958  
H430     H      0.001830000000     0.416790000000     0.983450000000     0.037815   
H431     H      0.031080000000     0.333350000000     0.529950000000     0.0380796  
H432     H      0.001410000000     0.353130000000     0.483670000000     0.0343902  
H433     H      0.762440000000     0.385920000000     0.792770000000     0.0346427  
H434     H      0.763970000000     0.339250000000     0.745360000000     0.0376578  
H435     H      0.729000000000     0.354530000000     0.700570000000     0.0326935  
H436     H      0.781720000000     0.422860000000     0.782520000000     0.0360532  
H437     H      0.720480000000     0.421940000000     0.777370000000     0.0347999  
H438     H      0.742280000000     0.435260000000     0.742990000000     0.0339914  
H439     H      0.788210000000     0.349600000000     0.711220000000     0.0331718  
H440     H      0.750240000000     0.392000000000     0.695740000000     0.0375764  
H441     H      0.592140000000     0.523210000000     0.708490000000     0.0341534  
H442     H      0.588560000000     0.517300000000     0.770880000000     0.0349403  
H443     H      0.626500000000     0.478050000000     0.791760000000     0.0379536  
H444     H      0.626560000000     0.543290000000     0.692290000000     0.0377637  
H445     H      0.628440000000     0.482680000000     0.689190000000     0.0384368  
H446     H      0.662020000000     0.500760000000     0.708950000000     0.0350804  
H447     H      0.618800000000     0.536460000000     0.794700000000     0.038273   
H448     H      0.659740000000     0.499460000000     0.774760000000     0.0346171  
H449     H      0.748310000000     0.383930000000     0.959530000000     0.0373035  
H450     H      0.744740000000     0.334070000000     0.501290000000     0.0336479  
H451     H      0.782300000000     0.345540000000     0.543250000000     0.0361951  
H452     H      0.723740000000     0.418290000000     0.969110000000     0.0356126  
H453     H      0.781870000000     0.427380000000     0.980910000000     0.0350192  
H454     H      0.757000000000     0.430250000000     0.016070000000     0.0337028  
H455     H      0.721610000000     0.340860000000     0.536670000000     0.0362863  
H456     H      0.759480000000     0.379460000000     0.556430000000     0.0344481  
H457     H      0.666800000000     0.509030000000     0.046080000000     0.0345623  
H458     H      0.661730000000     0.511120000000     0.981630000000     0.0352182  
H459     H      0.616230000000     0.479290000000     0.962100000000     0.0383038  
H460     H      0.635990000000     0.529400000000     0.568020000000     0.0383309  
H461     H      0.629170000000     0.468880000000     0.563650000000     0.0377068  
H462     H      0.595490000000     0.492170000000     0.550510000000     0.0342634  
H463     H      0.630620000000     0.536120000000     0.965550000000     0.0381386  
H464     H      0.589230000000     0.500770000000     0.487710000000     0.0355525  
H465     H      0.517720000000     0.678860000000     0.727030000000     0.0336215  
H466     H      0.520970000000     0.678600000000     0.789380000000     0.0343278  
H467     H      0.485370000000     0.637230000000     0.809220000000     0.038328   
H468     H      0.541720000000     0.650550000000     0.705260000000     0.0379464  
H469     H      0.484810000000     0.634850000000     0.706240000000     0.0381879  
H470     H      0.509580000000     0.605760000000     0.726100000000     0.0361884  
H471     H      0.544800000000     0.648140000000     0.808260000000     0.0380671  
H472     H      0.508610000000     0.606190000000     0.790650000000     0.0346716  
H473     H      0.508930000000     0.676440000000     0.556010000000     0.0339433  
H474     H      0.505990000000     0.682400000000     0.993920000000     0.0354777  
H475     H      0.537400000000     0.639790000000     0.969810000000     0.0383156  
H476     H      0.482450000000     0.648380000000     0.575060000000     0.0379424  
H477     H      0.537900000000     0.627840000000     0.572120000000     0.0384623  
H478     H      0.510610000000     0.603150000000     0.549870000000     0.0363111  
H479     H      0.479380000000     0.656390000000     0.972370000000     0.0382401  
H480     H      0.511350000000     0.609540000000     0.985820000000     0.0355214  
H481     H      0.251240000000     0.380450000000     0.827250000000     0.0333824  
H482     H      0.253490000000     0.431420000000     0.787480000000     0.0369042  
H483     H      0.278450000000     0.419640000000     0.735010000000     0.0347176  
H484     H      0.227270000000     0.347280000000     0.814350000000     0.0360233  
H485     H      0.288940000000     0.344550000000     0.804040000000     0.0353493  
H486     H      0.262790000000     0.335170000000     0.771530000000     0.0333123  
H487     H      0.224360000000     0.431780000000     0.755570000000     0.0361678  
H488     H      0.251850000000     0.385830000000     0.729690000000     0.0379743  
H489     H      0.507550000000     0.352550000000     0.771560000000     0.0350358  
H490     H      0.507220000000     0.352270000000     0.707200000000     0.0344078  
H491     H      0.469250000000     0.393100000000     0.691990000000     0.0375032  
H492     H      0.534190000000     0.380320000000     0.790770000000     0.0385878  
H493     H      0.478910000000     0.399120000000     0.794340000000     0.0385934  
H494     H      0.502520000000     0.425940000000     0.770410000000     0.0357566  
H495     H      0.529590000000     0.383520000000     0.687980000000     0.0377168  
H496     H      0.494030000000     0.424510000000     0.707700000000     0.0342335  
H497     H      0.343420000000     0.509020000000     0.792320000000     0.0338816  
H498     H      0.337590000000     0.510680000000     0.730420000000     0.03432    
H499     H      0.381320000000     0.540890000000     0.705750000000     0.0384665  
H500     H      0.372830000000     0.482570000000     0.809360000000     0.0375476  
H501     H      0.390230000000     0.539990000000     0.808460000000     0.0383486  
H502     H      0.416490000000     0.513980000000     0.786500000000     0.0352472  
H503     H      0.362220000000     0.484520000000     0.706820000000     0.0385813  
H504     H      0.410550000000     0.514110000000     0.722550000000     0.0358914  
H505     H      0.241600000000     0.391230000000     0.975590000000     0.0337982  
H506     H      0.247210000000     0.340670000000     0.516720000000     0.0364748  
H507     H      0.286270000000     0.353030000000     0.558810000000     0.0340722  
H508     H      0.220710000000     0.425650000000     0.990550000000     0.0354643  
H509     H      0.281550000000     0.429980000000     0.990850000000     0.0401096  
H510     H      0.262450000000     0.436880000000     0.028550000000     0.0354258  
H511     H      0.226570000000     0.345250000000     0.554320000000     0.0344251  
H512     H      0.263580000000     0.387950000000     0.570740000000     0.036634   
H513     H      0.502030000000     0.348190000000     0.031020000000     0.0342011  
H514     H      0.502650000000     0.349890000000     0.967990000000     0.0347846  
H515     H      0.470640000000     0.395830000000     0.952820000000     0.0374685  
H516     H      0.531560000000     0.371280000000     0.552110000000     0.0385697  
H517     H      0.479290000000     0.397340000000     0.555620000000     0.0389508  
H518     H      0.506410000000     0.421610000000     0.532710000000     0.036117   
H519     H      0.528980000000     0.378240000000     0.949200000000     0.037659   
H520     H      0.498940000000     0.423220000000     0.470120000000     0.0340805  
H521     H      0.421910000000     0.519800000000     0.556560000000     0.0345637  
H522     H      0.422670000000     0.520370000000     0.993910000000     0.036307   
H523     H      0.375990000000     0.492760000000     0.970670000000     0.0382487  
H524     H      0.393010000000     0.544580000000     0.576530000000     0.0380312  
H525     H      0.377760000000     0.486000000000     0.573530000000     0.0380559  
H526     H      0.348840000000     0.512670000000     0.556140000000     0.0345753  
H527     H      0.396660000000     0.547950000000     0.973550000000     0.038158   
H528     H      0.349200000000     0.518310000000     0.992590000000     0.0348246  
H529     H      0.644410000000     0.747510000000     0.808710000000     0.0372524  
H530     H      0.595750000000     0.745600000000     0.766220000000     0.0343743  
H531     H      0.601300000000     0.790780000000     0.731140000000     0.0367139  
H532     H      0.681910000000     0.730710000000     0.795190000000     0.032974   
H533     H      0.681050000000     0.791500000000     0.795570000000     0.0341777  
H534     H      0.689210000000     0.774520000000     0.756850000000     0.0372359  
H535     H      0.605020000000     0.730280000000     0.727370000000     0.0361164  
H536     H      0.638130000000     0.775780000000     0.715040000000     0.0346898  
H537     H      0.685990000000     0.742710000000     0.522510000000     0.0325628  
H538     H      0.640420000000     0.748510000000     0.568230000000     0.0368054  
H539     H      0.598640000000     0.787450000000     0.053360000000     0.0338517  
H540     H      0.673620000000     0.724210000000     0.486000000000     0.036152   
H541     H      0.676250000000     0.785980000000     0.986710000000     0.0361203  
H542     H      0.640020000000     0.768340000000     0.972150000000     0.0336857  
H543     H      0.603110000000     0.727980000000     0.560310000000     0.0342615  
H544     H      0.590390000000     0.765790000000     0.017010000000     0.0374261  
H545     H      0.601230000000     0.844650000000     0.890520000000     0.0351645  
H546     H      0.664270000000     0.847320000000     0.889030000000     0.0344226  
H547     H      0.683830000000     0.894300000000     0.859470000000     0.0383357  
H548     H      0.580530000000     0.872940000000     0.915470000000     0.0385232  
H549     H      0.580540000000     0.887540000000     0.857110000000     0.0384099  
H550     H      0.597760000000     0.917620000000     0.882490000000     0.0349898  
H551     H      0.684060000000     0.875140000000     0.915120000000     0.0386333  
H552     H      0.661590000000     0.920720000000     0.885150000000     0.0361021  
H553     H      0.605050000000     0.923120000000     0.631170000000     0.035435   
H554     H      0.668570000000     0.924510000000     0.628540000000     0.0342456  
H555     H      0.688990000000     0.885090000000     0.665760000000     0.0378395  
H556     H      0.584730000000     0.892860000000     0.608260000000     0.0379684  
H557     H      0.585680000000     0.879640000000     0.665510000000     0.03809    
H558     H      0.606980000000     0.850440000000     0.642220000000     0.0342239  
H559     H      0.688180000000     0.893490000000     0.606180000000     0.0381278  
H560     H      0.671210000000     0.852690000000     0.643740000000     0.0346478  
H561     H      0.627550000000     0.257260000000     0.773580000000     0.0372237  
H562     H      0.673600000000     0.261910000000     0.728030000000     0.034742   
H563     H      0.655290000000     0.231120000000     0.682810000000     0.0349344  
H564     H      0.594740000000     0.285380000000     0.770110000000     0.033629   
H565     H      0.579780000000     0.229580000000     0.752570000000     0.0347373  
H566     H      0.576070000000     0.258810000000     0.720930000000     0.0370957  
H567     H      0.666130000000     0.289990000000     0.696450000000     0.033786   
H568     H      0.622390000000     0.258060000000     0.676230000000     0.0348971  
H569     H      0.659770000000     0.010950000000     0.707880000000     0.034947   
H570     H      0.595990000000     0.007620000000     0.706560000000     0.0351066  
H571     H      0.577050000000     0.980760000000     0.754710000000     0.0378179  
H572     H      0.677540000000     0.041500000000     0.732370000000     0.0379683  
H573     H      0.680300000000     0.987520000000     0.757390000000     0.0387002  
H574     H      0.657680000000     0.015560000000     0.780850000000     0.0349309  
H575     H      0.574220000000     0.035650000000     0.730820000000     0.0382669  
H576     H      0.594550000000     0.011140000000     0.779620000000     0.034339   
H577     H      0.574450000000     0.254890000000     0.969660000000     0.0358991  
H578     H      0.621880000000     0.255480000000     0.926810000000     0.0340821  
H579     H      0.663370000000     0.288270000000     0.949400000000     0.0359851  
H580     H      0.576440000000     0.224260000000     0.500140000000     0.0350544  
H581     H      0.590730000000     0.278400000000     0.521290000000     0.0349239  
H582     H      0.623770000000     0.250510000000     0.524160000000     0.0373451  
H583     H      0.655050000000     0.229050000000     0.933950000000     0.0352866  
H584     H      0.671670000000     0.259300000000     0.479880000000     0.0343583  
H585     H      0.588240000000     0.168960000000     0.843880000000     0.0344426  
H586     H      0.651570000000     0.171160000000     0.843830000000     0.0346798  
H587     H      0.673180000000     0.126400000000     0.874870000000     0.0384563  
H588     H      0.569060000000     0.140410000000     0.818130000000     0.037518   
H589     H      0.569670000000     0.123030000000     0.875040000000     0.0385406  
H590     H      0.590580000000     0.095680000000     0.849250000000     0.0353014  
H591     H      0.672560000000     0.143870000000     0.818010000000     0.0379109  
H592     H      0.654010000000     0.097840000000     0.849090000000     0.034894   
H593     H      0.588270000000     0.168700000000     0.590390000000     0.0339596  
H594     H      0.652020000000     0.170380000000     0.590820000000     0.0344522  
H595     H      0.672760000000     0.128430000000     0.625810000000     0.0382821  
H596     H      0.569340000000     0.137950000000     0.567120000000     0.0373203  
H597     H      0.569330000000     0.126200000000     0.625510000000     0.0383109  
H598     H      0.589810000000     0.096220000000     0.602430000000     0.0352199  
H599     H      0.672750000000     0.140610000000     0.567630000000     0.0376449  
H600     H      0.653710000000     0.097770000000     0.602440000000     0.034914   
H601     H      0.661930000000     0.008830000000     0.527250000000     0.0341013  
H602     H      0.598020000000     0.007010000000     0.526880000000     0.0345655  
H603     H      0.576450000000     0.031610000000     0.978330000000     0.0388488  
H604     H      0.682530000000     0.981610000000     0.501110000000     0.037717   
H605     H      0.679700000000     0.038110000000     0.480360000000     0.0379833  
H606     H      0.662180000000     0.008920000000     0.954130000000     0.0343621  
H607     H      0.579150000000     0.977390000000     0.002070000000     0.0379711  
H608     H      0.598640000000     0.004140000000     0.953770000000     0.0353988  
H609     H      0.252860000000     0.634470000000     0.703040000000     0.0340656  
H610     H      0.257610000000     0.587180000000     0.748170000000     0.0374873  
H611     H      0.291730000000     0.603410000000     0.793410000000     0.0349823  
H612     H      0.231520000000     0.669710000000     0.715080000000     0.0359527  
H613     H      0.293290000000     0.672330000000     0.717410000000     0.0360923  
H614     H      0.272060000000     0.684360000000     0.752560000000     0.0332267  
H615     H      0.233670000000     0.593300000000     0.783600000000     0.0345152  
H616     H      0.267680000000     0.638920000000     0.799630000000     0.037255   
H617     H      0.261830000000     0.629170000000     0.569700000000     0.0367557  
H618     H      0.271580000000     0.582620000000     0.527090000000     0.0338544  
H619     H      0.235360000000     0.591660000000     0.983560000000     0.0361698  
H620     H      0.283370000000     0.666220000000     0.563150000000     0.0337547  
H621     H      0.224690000000     0.669910000000     0.548980000000     0.034148   
H622     H      0.250810000000     0.678010000000     0.015660000000     0.0364105  
H623     H      0.295880000000     0.592210000000     0.993110000000     0.0390376  
H624     H      0.255640000000     0.627670000000     0.972000000000     0.0344617  
H625     H      0.107790000000     0.599590000000     0.870460000000     0.0360206  
H626     H      0.106780000000     0.664940000000     0.867900000000     0.034648   
H627     H      0.147420000000     0.684200000000     0.904480000000     0.0380646  
H628     H      0.138010000000     0.580030000000     0.846890000000     0.0377761  
H629     H      0.152310000000     0.580790000000     0.904000000000     0.0383703  
H630     H      0.180580000000     0.602680000000     0.880160000000     0.0339166  
H631     H      0.138020000000     0.683410000000     0.844950000000     0.0381545  
H632     H      0.178870000000     0.665490000000     0.881870000000     0.0343271  
H633     H      0.093900000000     0.592420000000     0.618790000000     0.0341487  
H634     H      0.089840000000     0.654870000000     0.620970000000     0.035009   
H635     H      0.133310000000     0.678780000000     0.652360000000     0.0383252  
H636     H      0.124500000000     0.574830000000     0.594280000000     0.0376069  
H637     H      0.137570000000     0.575340000000     0.652990000000     0.0381184  
H638     H      0.166610000000     0.595620000000     0.628620000000     0.0352555  
H639     H      0.116100000000     0.678050000000     0.596010000000     0.038105   
H640     H      0.162860000000     0.660460000000     0.627100000000     0.0346962  
H641     H      0.759740000000     0.622020000000     0.705920000000     0.0370148  
H642     H      0.751760000000     0.574920000000     0.748510000000     0.0338834  
H643     H      0.790970000000     0.583560000000     0.789230000000     0.0365783  
H644     H      0.738270000000     0.658880000000     0.713590000000     0.0354604  
H645     H      0.797040000000     0.663410000000     0.725240000000     0.0346898  
H646     H      0.772540000000     0.670350000000     0.760010000000     0.037522   
H647     H      0.729690000000     0.584490000000     0.783920000000     0.036157   
H648     H      0.771360000000     0.619090000000     0.803080000000     0.0345946  
H649     H      0.011090000000     0.595950000000     0.726520000000     0.0349722  
H650     H      0.009840000000     0.659570000000     0.729400000000     0.035043   
H651     H      0.985760000000     0.677020000000     0.780140000000     0.0387426  
H652     H      0.041040000000     0.575430000000     0.749530000000     0.0379227  
H653     H      0.986920000000     0.573460000000     0.774930000000     0.0385576  
H654     H      0.016180000000     0.593300000000     0.799460000000     0.0349458  
H655     H      0.039280000000     0.679070000000     0.753980000000     0.0378777  
H656     H      0.015700000000     0.655470000000     0.802240000000     0.0348976  
H657     H      0.750760000000     0.674590000000     0.025410000000     0.0324143  
H658     H      0.754530000000     0.627660000000     0.978840000000     0.0368386  
H659     H      0.788480000000     0.582250000000     0.995750000000     0.0392499  
H660     H      0.730130000000     0.662880000000     0.561000000000     0.0357413  
H661     H      0.792060000000     0.660500000000     0.562320000000     0.0358768  
H662     H      0.770930000000     0.625430000000     0.575260000000     0.0341361  
H663     H      0.730410000000     0.592480000000     0.986490000000     0.0333426  
H664     H      0.765160000000     0.577590000000     0.531810000000     0.0373852  
H665     H      0.910120000000     0.662270000000     0.886930000000     0.0354461  
H666     H      0.913320000000     0.595890000000     0.888710000000     0.036683   
H667     H      0.870790000000     0.574380000000     0.922940000000     0.0378445  
H668     H      0.876940000000     0.678320000000     0.864810000000     0.03801    
H669     H      0.868970000000     0.677890000000     0.924540000000     0.0384236  
H670     H      0.838530000000     0.657100000000     0.902360000000     0.0339016  
H671     H      0.883550000000     0.575230000000     0.865570000000     0.0384776  
H672     H      0.840760000000     0.594930000000     0.900010000000     0.0333893  
H673     H      0.862590000000     0.589250000000     0.635990000000     0.0356296  
H674     H      0.865240000000     0.656040000000     0.637350000000     0.035167   
H675     H      0.908120000000     0.673460000000     0.673120000000     0.0380808  
H676     H      0.894840000000     0.570350000000     0.614780000000     0.0382108  
H677     H      0.901260000000     0.570180000000     0.674570000000     0.0379946  
H678     H      0.933910000000     0.588320000000     0.653240000000     0.0338566  
H679     H      0.897680000000     0.673510000000     0.615150000000     0.0383178  
H680     H      0.937170000000     0.650500000000     0.651180000000     0.0344457  
H681     H      0.009100000000     0.594970000000     0.033290000000     0.0353845  
H682     H      0.007160000000     0.661070000000     0.531620000000     0.0349695  
H683     H      0.037470000000     0.679140000000     0.485170000000     0.0380426  
H684     H      0.982960000000     0.574870000000     0.005780000000     0.0380448  
H685     H      0.039840000000     0.575700000000     0.987510000000     0.038129   
H686     H      0.012950000000     0.595200000000     0.960220000000     0.034374   
H687     H      0.980180000000     0.678100000000     0.502860000000     0.0378167  
H688     H      0.011680000000     0.657230000000     0.458710000000     0.0342708  
H689     H      0.344950000000     0.266190000000     0.748880000000     0.0346201  
H690     H      0.394160000000     0.266700000000     0.793060000000     0.0373833  
H691     H      0.440760000000     0.236990000000     0.772570000000     0.0354576  
H692     H      0.351460000000     0.290240000000     0.714050000000     0.0365924  
H693     H      0.361730000000     0.230240000000     0.707100000000     0.0353456  
H694     H      0.394250000000     0.256120000000     0.696110000000     0.0338577  
H695     H      0.426380000000     0.294210000000     0.784200000000     0.0354431  
H696     H      0.442200000000     0.262230000000     0.737500000000     0.0366074  
H697     H      0.390200000000     0.265240000000     0.947280000000     0.0344161  
H698     H      0.439390000000     0.270640000000     0.987430000000     0.0405318  
H699     H      0.424470000000     0.297720000000     0.537640000000     0.0351745  
H700     H      0.358810000000     0.237970000000     0.958130000000     0.0365431  
H701     H      0.348120000000     0.297770000000     0.969040000000     0.0355877  
H702     H      0.342570000000     0.271170000000     0.502120000000     0.0345068  
H703     H      0.440560000000     0.242730000000     0.520420000000     0.0361761  
H704     H      0.393240000000     0.268600000000     0.544730000000     0.0376089  
H705     H      0.368840000000     0.101880000000     0.881130000000     0.0349447  
H706     H      0.432450000000     0.102420000000     0.881280000000     0.0349741  
H707     H      0.451880000000     0.143860000000     0.845210000000     0.0387234  
H708     H      0.348640000000     0.132320000000     0.903790000000     0.0384078  
H709     H      0.348580000000     0.143040000000     0.845170000000     0.0378052  
H710     H      0.367660000000     0.174220000000     0.867860000000     0.0349384  
H711     H      0.452010000000     0.133330000000     0.903880000000     0.0376405  
H712     H      0.432290000000     0.174680000000     0.867820000000     0.0350327  
H713     H      0.367870000000     0.181400000000     0.623220000000     0.0342616  
H714     H      0.430640000000     0.183000000000     0.623110000000     0.0345327  
H715     H      0.452350000000     0.136780000000     0.651830000000     0.0374888  
H716     H      0.348180000000     0.154480000000     0.596040000000     0.0376984  
H717     H      0.348860000000     0.133880000000     0.651920000000     0.0382239  
H718     H      0.369410000000     0.107850000000     0.624620000000     0.0349599  
H719     H      0.451660000000     0.157300000000     0.595870000000     0.0386037  
H720     H      0.433240000000     0.109520000000     0.624620000000     0.0353061  
H721     H      0.342240000000     0.751710000000     0.761340000000     0.0331658  
H722     H      0.386370000000     0.755540000000     0.712760000000     0.0373821  
H723     H      0.430050000000     0.793030000000     0.725730000000     0.0334518  
H724     H      0.356190000000     0.732970000000     0.797180000000     0.0364028  
H725     H      0.355860000000     0.794680000000     0.796380000000     0.036026   
H726     H      0.392410000000     0.775760000000     0.808420000000     0.0338559  
H727     H      0.423150000000     0.733760000000     0.719590000000     0.0348334  
H728     H      0.438740000000     0.771380000000     0.762070000000     0.0376119  
H729     H      0.430510000000     0.013530000000     0.730430000000     0.0352817  
H730     H      0.365660000000     0.014760000000     0.730720000000     0.0352074  
H731     H      0.345970000000     0.987040000000     0.778350000000     0.0385449  
H732     H      0.450470000000     0.040970000000     0.756840000000     0.0379218  
H733     H      0.449490000000     0.985050000000     0.777910000000     0.0388551  
H734     H      0.429390000000     0.013100000000     0.803580000000     0.0349498  
H735     H      0.346960000000     0.042930000000     0.757250000000     0.0380911  
H736     H      0.367350000000     0.014290000000     0.803850000000     0.0345799  
H737     H      0.432740000000     0.767310000000     0.018170000000     0.0362907  
H738     H      0.387810000000     0.772370000000     0.971240000000     0.0336513  
H739     H      0.344830000000     0.737730000000     0.987350000000     0.040521   
H740     H      0.427900000000     0.794550000000     0.551400000000     0.0340732  
H741     H      0.411770000000     0.738690000000     0.565350000000     0.0360793  
H742     H      0.378570000000     0.766360000000     0.568070000000     0.0369319  
H743     H      0.354590000000     0.798260000000     0.979620000000     0.034857   
H744     H      0.334830000000     0.763070000000     0.520430000000     0.0339519  
H745     H      0.429490000000     0.848670000000     0.887360000000     0.0345836  
H746     H      0.366800000000     0.850880000000     0.889470000000     0.0338758  
H747     H      0.346910000000     0.897430000000     0.919550000000     0.0387688  
H748     H      0.449950000000     0.877350000000     0.862670000000     0.0382257  
H749     H      0.450260000000     0.891020000000     0.921290000000     0.0385926  
H750     H      0.432950000000     0.921510000000     0.896430000000     0.0351645  
H751     H      0.346400000000     0.878720000000     0.863850000000     0.0381331  
H752     H      0.368800000000     0.924260000000     0.894020000000     0.0362392  
H753     H      0.422940000000     0.932130000000     0.647820000000     0.0354599  
H754     H      0.359620000000     0.930100000000     0.649940000000     0.0343018  
H755     H      0.341690000000     0.889510000000     0.612710000000     0.0379471  
H756     H      0.444790000000     0.903280000000     0.671060000000     0.0381273  
H757     H      0.445070000000     0.889800000000     0.613810000000     0.0381996  
H758     H      0.425460000000     0.859430000000     0.637100000000     0.0344499  
H759     H      0.341480000000     0.898170000000     0.672310000000     0.038001   
H760     H      0.360800000000     0.858150000000     0.635070000000     0.0347469  
H761     H      0.368280000000     0.032330000000     0.552090000000     0.0341307  
H762     H      0.431520000000     0.031580000000     0.550480000000     0.0341819  
H763     H      0.449540000000     0.988510000000     0.016340000000     0.0391511  
H764     H      0.347600000000     0.050340000000     0.519060000000     0.0378023  
H765     H      0.346590000000     0.990620000000     0.518170000000     0.0385259  
H766     H      0.364590000000     0.007850000000     0.983230000000     0.0389119  
H767     H      0.450840000000     0.048550000000     0.016120000000     0.0366854  
H768     H      0.431070000000     0.006160000000     0.981880000000     0.0390182  
N1       N      0.863690000000     0.382320000000     0.352880000000    -0.179998   
N2       N      0.878620000000     0.383200000000     0.418160000000    -0.179498   
N3       N      0.895560000000     0.387950000000     0.169220000000    -0.179673   
N4       N      0.877960000000     0.387960000000     0.104600000000    -0.179691   
N5       N      0.972630000000     0.384540000000     0.276010000000    -0.179804   
N6       N      0.038120000000     0.384250000000     0.261060000000    -0.179652   
N7       N      0.113620000000     0.386630000000     0.367960000000    -0.179875   
N8       N      0.127430000000     0.385210000000     0.433510000000    -0.179855   
N9       N      0.129460000000     0.385470000000     0.119910000000    -0.179763   
N10      N      0.146780000000     0.386150000000     0.184500000000    -0.180137   
N11      N      0.971430000000     0.385230000000     0.008870000000    -0.179859   
N12      N      0.034520000000     0.385190000000     0.531160000000    -0.180308   
N13      N      0.722070000000     0.389320000000     0.237580000000    -0.180195   
N14      N      0.787700000000     0.383930000000     0.249300000000    -0.179809   
N15      N      0.630540000000     0.476640000000     0.240280000000    -0.179706   
N16      N      0.622220000000     0.543490000000     0.243620000000    -0.179634   
N17      N      0.784790000000     0.387850000000     0.013770000000    -0.182614   
N18      N      0.720040000000     0.378130000000     0.501020000000    -0.180497   
N19      N      0.621120000000     0.470460000000     0.012820000000    -0.180263   
N20      N      0.635750000000     0.536330000000     0.517010000000    -0.17899    
N21      N      0.481700000000     0.633700000000     0.257840000000    -0.180175   
N22      N      0.546740000000     0.649860000000     0.256740000000    -0.180429   
N23      N      0.540910000000     0.631290000000     0.020590000000    -0.180289   
N24      N      0.477440000000     0.653280000000     0.523840000000    -0.179577   
N25      N      0.285890000000     0.379740000000     0.266640000000    -0.180029   
N26      N      0.223100000000     0.390720000000     0.286900000000    -0.180083   
N27      N      0.470500000000     0.397510000000     0.243310000000    -0.179319   
N28      N      0.535390000000     0.379610000000     0.238990000000    -0.179324   
N29      N      0.388060000000     0.543670000000     0.256930000000    -0.180106   
N30      N      0.366980000000     0.480120000000     0.258140000000    -0.180562   
N31      N      0.286640000000     0.392600000000     0.026060000000    -0.179443   
N32      N      0.220830000000     0.383810000000     0.520810000000    -0.180753   
N33      N      0.471620000000     0.398000000000     0.004350000000    -0.181486   
N34      N      0.533610000000     0.373350000000     0.500340000000    -0.180643   
N35      N      0.374930000000     0.486030000000     0.522000000000    -0.180055   
N36      N      0.395790000000     0.549720000000     0.025250000000    -0.181087   
N37      N      0.642830000000     0.794520000000     0.261500000000    -0.179993   
N38      N      0.642730000000     0.727400000000     0.262440000000    -0.180056   
N39      N      0.635090000000     0.789780000000     0.017370000000    -0.181726   
N40      N      0.639560000000     0.723120000000     0.524560000000    -0.179844   
N41      N      0.632130000000     0.892710000000     0.354940000000    -0.180088   
N42      N      0.632220000000     0.872980000000     0.418720000000    -0.180351   
N43      N      0.637530000000     0.880600000000     0.169140000000    -0.180223   
N44      N      0.636410000000     0.894350000000     0.103710000000    -0.180096   
N45      N      0.616120000000     0.228020000000     0.216150000000    -0.180279   
N46      N      0.632130000000     0.289820000000     0.235140000000    -0.180451   
N47      N      0.628810000000     0.980900000000     0.257790000000    -0.179607   
N48      N      0.625720000000     0.041690000000     0.229380000000    -0.179761   
N49      N      0.629180000000     0.285350000000     0.987810000000    -0.178791   
N50      N      0.614680000000     0.224230000000     0.465620000000    -0.180576   
N51      N      0.621450000000     0.123310000000     0.378340000000    -0.180061   
N52      N      0.620800000000     0.143460000000     0.314690000000    -0.180326   
N53      N      0.621020000000     0.125750000000     0.129150000000    -0.179707   
N54      N      0.621090000000     0.140710000000     0.063900000000    -0.180363   
N55      N      0.627940000000     0.038070000000     0.477360000000    -0.179623   
N56      N      0.631060000000     0.976330000000     0.003750000000    -0.179569   
N57      N      0.295200000000     0.639760000000     0.257220000000    -0.180652   
N58      N      0.229920000000     0.629690000000     0.247510000000    -0.180695   
N59      N      0.227350000000     0.633060000000     0.013300000000    -0.181338   
N60      N      0.292240000000     0.628630000000     0.529370000000    -0.179792   
N61      N      0.150480000000     0.632610000000     0.407790000000    -0.17963    
N62      N      0.135230000000     0.631690000000     0.342470000000    -0.179428   
N63      N      0.137980000000     0.627090000000     0.156020000000    -0.179892   
N64      N      0.119760000000     0.626430000000     0.091660000000    -0.180018   
N65      N      0.796860000000     0.625790000000     0.260220000000    -0.179453   
N66      N      0.731120000000     0.620980000000     0.247550000000    -0.179494   
N67      N      0.982940000000     0.625130000000     0.278230000000    -0.179891   
N68      N      0.043300000000     0.627410000000     0.249810000000    -0.180566   
N69      N      0.793020000000     0.619990000000     0.530460000000    -0.180501   
N70      N      0.727650000000     0.629880000000     0.021600000000    -0.182031   
N71      N      0.869910000000     0.626130000000     0.427180000000    -0.180638   
N72      N      0.883780000000     0.627090000000     0.361840000000    -0.180087   
N73      N      0.904640000000     0.621850000000     0.177290000000    -0.18061    
N74      N      0.892480000000     0.621960000000     0.111560000000    -0.180193   
N75      N      0.042200000000     0.627470000000     0.986000000000    -0.179348   
N76      N      0.978540000000     0.626560000000     0.508070000000    -0.179174   
N77      N      0.402220000000     0.231090000000     0.239030000000    -0.181067   
N78      N      0.386630000000     0.294590000000     0.251510000000    -0.180671   
N79      N      0.383890000000     0.299910000000     0.506070000000    -0.179801   
N80      N      0.400780000000     0.237730000000     0.988060000000    -0.177324   
N81      N      0.400160000000     0.145640000000     0.341600000000    -0.178756   
N82      N      0.400360000000     0.131490000000     0.407460000000    -0.178875   
N83      N      0.400700000000     0.133360000000     0.155200000000    -0.179508   
N84      N      0.399840000000     0.156940000000     0.092510000000    -0.179647   
N85      N      0.394840000000     0.796730000000     0.262770000000    -0.180701   
N86      N      0.387730000000     0.730420000000     0.256620000000    -0.180445   
N87      N      0.397660000000     0.982600000000     0.278520000000    -0.179838   
N88      N      0.398780000000     0.045010000000     0.254300000000    -0.180231   
N89      N      0.376500000000     0.735630000000     0.027890000000    -0.179207   
N90      N      0.393210000000     0.798750000000     0.513740000000    -0.18029    
N91      N      0.398710000000     0.896180000000     0.423750000000    -0.180494   
N92      N      0.398210000000     0.877360000000     0.359840000000    -0.180713   
N93      N      0.393340000000     0.887460000000     0.109750000000    -0.179707   
N94      N      0.393060000000     0.901790000000     0.175230000000    -0.179862   
N95      N      0.397940000000     0.985630000000     0.514090000000    -0.178542   
N96      N      0.399310000000     0.053130000000     0.018050000000    -0.180122   
N97      N      0.863690000000     0.382320000000     0.852870000000    -0.18006    
N98      N      0.878620000000     0.383200000000     0.918160000000    -0.179278   
N99      N      0.895560000000     0.387950000000     0.669220000000    -0.179676   
N100     N      0.877960000000     0.387960000000     0.604600000000    -0.179734   
N101     N      0.972630000000     0.384540000000     0.776010000000    -0.179788   
N102     N      0.038120000000     0.384250000000     0.761060000000    -0.179643   
N103     N      0.113620000000     0.386630000000     0.867960000000    -0.179856   
N104     N      0.127430000000     0.385210000000     0.933510000000    -0.179558   
N105     N      0.129460000000     0.385470000000     0.619910000000    -0.179805   
N106     N      0.146780000000     0.386150000000     0.684500000000    -0.180127   
N107     N      0.971430000000     0.385230000000     0.508870000000    -0.180599   
N108     N      0.034520000000     0.385190000000     0.031160000000    -0.18085    
N109     N      0.722070000000     0.389320000000     0.737590000000    -0.180192   
N110     N      0.787700000000     0.383930000000     0.749300000000    -0.179799   
N111     N      0.630540000000     0.476640000000     0.740280000000    -0.179713   
N112     N      0.622220000000     0.543490000000     0.743620000000    -0.179639   
N113     N      0.784790000000     0.387850000000     0.513770000000    -0.180584   
N114     N      0.720040000000     0.378130000000     0.001020000000    -0.181352   
N115     N      0.621120000000     0.470460000000     0.512820000000    -0.179182   
N116     N      0.635750000000     0.536330000000     0.017010000000    -0.180055   
N117     N      0.481700000000     0.633700000000     0.757840000000    -0.180177   
N118     N      0.546740000000     0.649860000000     0.756740000000    -0.180431   
N119     N      0.540910000000     0.631290000000     0.520590000000    -0.179256   
N120     N      0.477440000000     0.653280000000     0.023840000000    -0.180659   
N121     N      0.285890000000     0.379740000000     0.766640000000    -0.180014   
N122     N      0.223100000000     0.390720000000     0.786900000000    -0.180054   
N123     N      0.470500000000     0.397510000000     0.743310000000    -0.179323   
N124     N      0.535390000000     0.379610000000     0.738990000000    -0.179328   
N125     N      0.388060000000     0.543670000000     0.756930000000    -0.180108   
N126     N      0.366980000000     0.480120000000     0.758140000000    -0.180563   
N127     N      0.286640000000     0.392600000000     0.526060000000    -0.180792   
N128     N      0.220830000000     0.383810000000     0.020810000000    -0.182862   
N129     N      0.471620000000     0.398000000000     0.504360000000    -0.180428   
N130     N      0.533610000000     0.373350000000     0.000340000000    -0.181732   
N131     N      0.374930000000     0.486030000000     0.022000000000    -0.181114   
N132     N      0.395790000000     0.549720000000     0.525250000000    -0.179971   
N133     N      0.642830000000     0.794520000000     0.761510000000    -0.179983   
N134     N      0.642730000000     0.727400000000     0.762440000000    -0.180052   
N135     N      0.635090000000     0.789780000000     0.517370000000    -0.17966    
N136     N      0.639560000000     0.723120000000     0.024560000000    -0.178539   
N137     N      0.632130000000     0.892710000000     0.854930000000    -0.180147   
N138     N      0.632220000000     0.872980000000     0.918720000000    -0.180059   
N139     N      0.637530000000     0.880600000000     0.669140000000    -0.180301   
N140     N      0.636410000000     0.894350000000     0.603710000000    -0.180132   
N141     N      0.616120000000     0.228020000000     0.716150000000    -0.180254   
N142     N      0.632130000000     0.289820000000     0.735140000000    -0.18045    
N143     N      0.628810000000     0.980900000000     0.757790000000    -0.179585   
N144     N      0.625720000000     0.041690000000     0.729380000000    -0.179751   
N145     N      0.629180000000     0.285350000000     0.487810000000    -0.180403   
N146     N      0.614680000000     0.224230000000     0.965610000000    -0.181365   
N147     N      0.621450000000     0.123310000000     0.878340000000    -0.180092   
N148     N      0.620800000000     0.143460000000     0.814690000000    -0.180323   
N149     N      0.621020000000     0.125750000000     0.629150000000    -0.17969    
N150     N      0.621090000000     0.140710000000     0.563900000000    -0.180085   
N151     N      0.627940000000     0.038070000000     0.977360000000    -0.179966   
N152     N      0.631060000000     0.976330000000     0.503750000000    -0.17993    
N153     N      0.295200000000     0.639760000000     0.757230000000    -0.180649   
N154     N      0.229920000000     0.629690000000     0.747510000000    -0.180688   
N155     N      0.227350000000     0.633060000000     0.513300000000    -0.179165   
N156     N      0.292240000000     0.628630000000     0.029370000000    -0.179131   
N157     N      0.150480000000     0.632610000000     0.907790000000    -0.179495   
N158     N      0.135230000000     0.631690000000     0.842470000000    -0.179405   
N159     N      0.137980000000     0.627090000000     0.656020000000    -0.179896   
N160     N      0.119760000000     0.626430000000     0.591660000000    -0.179882   
N161     N      0.796860000000     0.625790000000     0.760220000000    -0.179443   
N162     N      0.731120000000     0.620980000000     0.747550000000    -0.179556   
N163     N      0.982940000000     0.625130000000     0.778230000000    -0.179858   
N164     N      0.043300000000     0.627410000000     0.749810000000    -0.180551   
N165     N      0.793020000000     0.619990000000     0.030460000000    -0.179739   
N166     N      0.727650000000     0.629880000000     0.521600000000    -0.180495   
N167     N      0.869910000000     0.626130000000     0.927180000000    -0.180335   
N168     N      0.883780000000     0.627090000000     0.861840000000    -0.180058   
N169     N      0.904640000000     0.621850000000     0.677290000000    -0.180606   
N170     N      0.892480000000     0.621960000000     0.611560000000    -0.180237   
N171     N      0.042200000000     0.627470000000     0.486000000000    -0.179097   
N172     N      0.978540000000     0.626560000000     0.008070000000    -0.178833   
N173     N      0.402220000000     0.231090000000     0.739030000000    -0.181064   
N174     N      0.386630000000     0.294590000000     0.751520000000    -0.180674   
N175     N      0.383890000000     0.299910000000     0.006070000000    -0.181769   
N176     N      0.400780000000     0.237730000000     0.488060000000    -0.179902   
N177     N      0.400160000000     0.145640000000     0.841600000000    -0.178748   
N178     N      0.400360000000     0.131490000000     0.907460000000    -0.178733   
N179     N      0.400700000000     0.133360000000     0.655200000000    -0.179501   
N180     N      0.399840000000     0.156940000000     0.592510000000    -0.179546   
N181     N      0.394840000000     0.796730000000     0.762770000000    -0.180699   
N182     N      0.387730000000     0.730420000000     0.756620000000    -0.180438   
N183     N      0.397660000000     0.982600000000     0.778520000000    -0.1798     
N184     N      0.398780000000     0.045010000000     0.754300000000    -0.180228   
N185     N      0.376500000000     0.735630000000     0.527890000000    -0.179879   
N186     N      0.393210000000     0.798750000000     0.013740000000    -0.182369   
N187     N      0.398710000000     0.896180000000     0.923750000000    -0.180116   
N188     N      0.398210000000     0.877360000000     0.859840000000    -0.180688   
N189     N      0.393340000000     0.887460000000     0.609750000000    -0.179761   
N190     N      0.393060000000     0.901790000000     0.675230000000    -0.179859   
N191     N      0.397940000000     0.985630000000     0.014090000000    -0.177765   
N192     N      0.399310000000     0.053130000000     0.518050000000    -0.17945    
O1       O      0.421050000000     0.891290000000     0.062700000000    -0.560494   
O2       O      0.423930000000     0.891430000000     0.472270000000    -0.558629   
O3       O      0.423630000000     0.936910000000     0.017190000000    -0.556465   
O4       O      0.421110000000     0.845750000000     0.518180000000    -0.557007   
O5       O      0.367870000000     0.847300000000     0.012540000000    -0.558067   
O6       O      0.370190000000     0.938180000000     0.517880000000    -0.557899   
O7       O      0.370630000000     0.895280000000     0.470700000000    -0.561042   
O8       O      0.367640000000     0.890090000000     0.061130000000    -0.554948   
O9       O      0.423970000000     0.882920000000     0.311610000000    -0.557097   
O10      O      0.421110000000     0.895630000000     0.221910000000    -0.55997    
O11      O      0.423450000000     0.934340000000     0.272880000000    -0.559964   
O12      O      0.421830000000     0.844260000000     0.260270000000    -0.559459   
O13      O      0.368530000000     0.844650000000     0.265680000000    -0.559464   
O14      O      0.370000000000     0.935380000000     0.272580000000    -0.560114   
O15      O      0.367700000000     0.894110000000     0.223390000000    -0.558022   
O16      O      0.370620000000     0.885970000000     0.313460000000    -0.563683   
O17      O      0.426910000000     0.139040000000     0.455120000000    -0.554569   
O18      O      0.426650000000     0.150580000000     0.045140000000    -0.555688   
O19      O      0.426420000000     0.099690000000     0.506380000000    -0.556685   
O20      O      0.427070000000     0.190130000000     0.995170000000    -0.552076   
O21      O      0.373650000000     0.190120000000     0.491480000000    -0.554648   
O22      O      0.372980000000     0.100400000000     0.007640000000    -0.560293   
O23      O      0.373240000000     0.152760000000     0.044520000000    -0.557078   
O24      O      0.373480000000     0.137580000000     0.454960000000    -0.555116   
O25      O      0.427330000000     0.135870000000     0.203300000000    -0.555269   
O26      O      0.426980000000     0.140350000000     0.293990000000    -0.555439   
O27      O      0.426370000000     0.092550000000     0.250960000000    -0.558994   
O28      O      0.427980000000     0.183450000000     0.246860000000    -0.558798   
O29      O      0.374560000000     0.184010000000     0.242870000000    -0.559298   
O30      O      0.372940000000     0.093560000000     0.252330000000    -0.559913   
O31      O      0.373600000000     0.143180000000     0.293390000000    -0.553871   
O32      O      0.373890000000     0.134570000000     0.203010000000    -0.55771    
O33      O      0.890300000000     0.595930000000     0.063170000000    -0.557171   
O34      O      0.881430000000     0.598490000000     0.473050000000    -0.561382   
O35      O      0.931460000000     0.598540000000     0.013610000000    -0.559538   
O36      O      0.841050000000     0.595470000000     0.521780000000    -0.561782   
O37      O      0.839650000000     0.648780000000     0.027320000000    -0.554998   
O38      O      0.929740000000     0.652000000000     0.512930000000    -0.554204   
O39      O      0.877380000000     0.651810000000     0.475080000000    -0.559251   
O40      O      0.891270000000     0.649410000000     0.064320000000    -0.562769   
O41      O      0.886260000000     0.599500000000     0.314750000000    -0.564454   
O42      O      0.893850000000     0.596750000000     0.224830000000    -0.560713   
O43      O      0.935130000000     0.598160000000     0.273590000000    -0.557441   
O44      O      0.844180000000     0.598570000000     0.266740000000    -0.555225   
O45      O      0.845050000000     0.651900000000     0.261580000000    -0.558426   
O46      O      0.935030000000     0.651670000000     0.274290000000    -0.561099   
O47      O      0.896540000000     0.650170000000     0.223480000000    -0.560471   
O48      O      0.884240000000     0.652950000000     0.313260000000    -0.556549   
O49      O      0.141980000000     0.604770000000     0.454130000000    -0.560287   
O50      O      0.129730000000     0.601530000000     0.043750000000    -0.561483   
O51      O      0.090650000000     0.601960000000     0.492820000000    -0.554992   
O52      O      0.181110000000     0.604770000000     0.004360000000    -0.558584   
O53      O      0.178650000000     0.658050000000     0.509490000000    -0.555161   
O54      O      0.089210000000     0.655440000000     0.992460000000    -0.552389   
O55      O      0.125700000000     0.654860000000     0.045130000000    -0.555968   
O56      O      0.142290000000     0.658240000000     0.455890000000    -0.552884   
O57      O      0.138470000000     0.601120000000     0.204580000000    -0.554802   
O58      O      0.135860000000     0.603640000000     0.295290000000    -0.558178   
O59      O      0.091770000000     0.601530000000     0.248830000000    -0.561053   
O60      O      0.182510000000     0.602840000000     0.251730000000    -0.560771   
O61      O      0.181940000000     0.656190000000     0.246460000000    -0.557034   
O62      O      0.090940000000     0.655020000000     0.249600000000    -0.558698   
O63      O      0.137440000000     0.657100000000     0.293770000000    -0.556777   
O64      O      0.135340000000     0.654510000000     0.203300000000    -0.561332   
O65      O      0.594800000000     0.132330000000     0.016600000000    -0.564507   
O66      O      0.594730000000     0.126770000000     0.426210000000    -0.558553   
O67      O      0.598050000000     0.084180000000     0.974070000000    -0.560271   
O68      O      0.591550000000     0.174790000000     0.469570000000    -0.560848   
O69      O      0.644850000000     0.178420000000     0.965620000000    -0.555674   
O70      O      0.651350000000     0.087960000000     0.475350000000    -0.556489   
O71      O      0.648160000000     0.128480000000     0.425870000000    -0.55914    
O72      O      0.647960000000     0.137970000000     0.016010000000    -0.559028   
O73      O      0.594230000000     0.136420000000     0.267330000000    -0.560358   
O74      O      0.594150000000     0.130790000000     0.176880000000    -0.555862   
O75      O      0.596500000000     0.088200000000     0.224920000000    -0.557453   
O76      O      0.591830000000     0.179090000000     0.220340000000    -0.557376   
O77      O      0.645190000000     0.181560000000     0.216210000000    -0.556873   
O78      O      0.649850000000     0.091130000000     0.226430000000    -0.558171   
O79      O      0.647610000000     0.131370000000     0.176690000000    -0.560187   
O80      O      0.647470000000     0.141280000000     0.266710000000    -0.558008   
O81      O      0.606080000000     0.876870000000     0.467000000000    -0.555811   
O82      O      0.608410000000     0.888010000000     0.057020000000    -0.559025   
O83      O      0.605980000000     0.927500000000     0.506850000000    -0.561047   
O84      O      0.607980000000     0.837330000000     0.017980000000    -0.55991    
O85      O      0.661300000000     0.837920000000     0.513030000000    -0.554497   
O86      O      0.659420000000     0.929080000000     0.007260000000    -0.554917   
O87      O      0.661850000000     0.887090000000     0.055640000000    -0.558019   
O88      O      0.659420000000     0.880130000000     0.465560000000    -0.562784   
O89      O      0.609940000000     0.884320000000     0.216150000000    -0.564096   
O90      O      0.607210000000     0.886790000000     0.306430000000    -0.560249   
O91      O      0.605370000000     0.931030000000     0.259950000000    -0.557737   
O92      O      0.612310000000     0.840140000000     0.261560000000    -0.557792   
O93      O      0.665500000000     0.844170000000     0.266240000000    -0.557731   
O94      O      0.658700000000     0.934720000000     0.259730000000    -0.55872    
O95      O      0.660340000000     0.892480000000     0.307920000000    -0.558847   
O96      O      0.663350000000     0.886160000000     0.217450000000    -0.554957   
O97      O      0.378050000000     0.435860000000     0.044830000000    -0.554124   
O98      O      0.386870000000     0.345450000000     0.036300000000    -0.556021   
O99      O      0.426830000000     0.395080000000     0.035610000000    -0.562669   
O100     O      0.337190000000     0.385690000000     0.045780000000    -0.55816    
O101     O      0.330600000000     0.396200000000     0.493890000000    -0.558402   
O102     O      0.420960000000     0.394990000000     0.482700000000    -0.555497   
O103     O      0.374480000000     0.349560000000     0.484590000000    -0.55513    
O104     O      0.376330000000     0.440280000000     0.491810000000    -0.560465   
O105     O      0.374630000000     0.431540000000     0.282970000000    -0.557696   
O106     O      0.388970000000     0.341750000000     0.278960000000    -0.55996    
O107     O      0.426060000000     0.393550000000     0.275260000000    -0.55895    
O108     O      0.336920000000     0.378860000000     0.286710000000    -0.554299   
O109     O      0.329480000000     0.386230000000     0.234410000000    -0.557438   
O110     O      0.419750000000     0.390880000000     0.222480000000    -0.553457   
O111     O      0.376360000000     0.342620000000     0.227150000000    -0.55825    
O112     O      0.371850000000     0.433400000000     0.229840000000    -0.560609   
O113     O      0.391130000000     0.598010000000     0.499550000000    -0.55926    
O114     O      0.375460000000     0.687780000000     0.500880000000    -0.553769   
O115     O      0.428450000000     0.650400000000     0.498710000000    -0.554622   
O116     O      0.338840000000     0.634230000000     0.501470000000    -0.556354   
O117     O      0.339740000000     0.639770000000     0.054510000000    -0.552019   
O118     O      0.430700000000     0.645620000000     0.051680000000    -0.555846   
O119     O      0.383030000000     0.687850000000     0.053650000000    -0.558226   
O120     O      0.388620000000     0.596970000000     0.052710000000    -0.554638   
O121     O      0.385660000000     0.591990000000     0.230730000000    -0.560428   
O122     O      0.392040000000     0.682620000000     0.230670000000    -0.562577   
O123     O      0.433810000000     0.634350000000     0.231090000000    -0.561634   
O124     O      0.343110000000     0.641130000000     0.230630000000    -0.557301   
O125     O      0.342720000000     0.635000000000     0.283610000000    -0.560434   
O126     O      0.433560000000     0.638220000000     0.284180000000    -0.557463   
O127     O      0.385860000000     0.682640000000     0.283640000000    -0.555495   
O128     O      0.389600000000     0.591570000000     0.283820000000    -0.558745   
O129     O      0.581510000000     0.374670000000     0.026700000000    -0.563532   
O130     O      0.672130000000     0.372410000000     0.026820000000    -0.558845   
O131     O      0.627240000000     0.419330000000     0.033030000000    -0.552751   
O132     O      0.625230000000     0.328930000000     0.020540000000    -0.56033    
O133     O      0.631790000000     0.336440000000     0.468140000000    -0.555554   
O134     O      0.622960000000     0.426190000000     0.480420000000    -0.558738   
O135     O      0.672440000000     0.385760000000     0.475180000000    -0.556841   
O136     O      0.581670000000     0.377300000000     0.473540000000    -0.554422   
O137     O      0.583860000000     0.381190000000     0.264460000000    -0.564841   
O138     O      0.674510000000     0.384730000000     0.264100000000    -0.560508   
O139     O      0.627980000000     0.427850000000     0.265280000000    -0.563178   
O140     O      0.629740000000     0.336880000000     0.263060000000    -0.558451   
O141     O      0.631130000000     0.338150000000     0.209720000000    -0.55592    
O142     O      0.628170000000     0.429260000000     0.212070000000    -0.55289    
O143     O      0.674670000000     0.384480000000     0.210730000000    -0.552943   
O144     O      0.583250000000     0.382160000000     0.211250000000    -0.549068   
O145     O      0.636130000000     0.583460000000     0.045950000000    -0.549243   
O146     O      0.632110000000     0.674720000000     0.049080000000    -0.553409   
O147     O      0.588850000000     0.627510000000     0.047120000000    -0.556312   
O148     O      0.679720000000     0.631690000000     0.047990000000    -0.553726   
O149     O      0.680170000000     0.627210000000     0.494840000000    -0.559166   
O150     O      0.589340000000     0.633830000000     0.494270000000    -0.554994   
O151     O      0.638840000000     0.676220000000     0.496200000000    -0.555988   
O152     O      0.632030000000     0.585550000000     0.492930000000    -0.560121   
O153     O      0.631130000000     0.588000000000     0.274490000000    -0.558382   
O154     O      0.648620000000     0.677010000000     0.283260000000    -0.553066   
O155     O      0.595260000000     0.640930000000     0.281300000000    -0.554555   
O156     O      0.684550000000     0.623210000000     0.276270000000    -0.554701   
O157     O      0.683360000000     0.634520000000     0.224170000000    -0.556107   
O158     O      0.592820000000     0.642060000000     0.228130000000    -0.561429   
O159     O      0.640910000000     0.683020000000     0.230830000000    -0.559547   
O160     O      0.633450000000     0.592780000000     0.221520000000    -0.556701   
O161     O      0.130370000000     0.411770000000     0.071740000000    -0.558759   
O162     O      0.125810000000     0.411620000000     0.481410000000    -0.562419   
O163     O      0.082640000000     0.411830000000     0.028990000000    -0.559873   
O164     O      0.173420000000     0.411150000000     0.523280000000    -0.559735   
O165     O      0.173180000000     0.357650000000     0.026830000000    -0.560139   
O166     O      0.082350000000     0.358340000000     0.527700000000    -0.560623   
O167     O      0.127310000000     0.358130000000     0.481470000000    -0.554854   
O168     O      0.128280000000     0.358310000000     0.072250000000    -0.557268   
O169     O      0.122930000000     0.413520000000     0.320840000000    -0.556641   
O170     O      0.136270000000     0.413180000000     0.231060000000    -0.559696   
O171     O      0.084740000000     0.412060000000     0.269320000000    -0.562395   
O172     O      0.174510000000     0.415130000000     0.281540000000    -0.563355   
O173     O      0.176330000000     0.361700000000     0.285180000000    -0.550742   
O174     O      0.086460000000     0.358590000000     0.268540000000    -0.552946   
O175     O      0.139660000000     0.359790000000     0.232110000000    -0.557129   
O176     O      0.123030000000     0.360020000000     0.321070000000    -0.559362   
O177     O      0.878810000000     0.411350000000     0.465270000000    -0.558368   
O178     O      0.877760000000     0.413980000000     0.056030000000    -0.553931   
O179     O      0.923670000000     0.412300000000     0.510860000000    -0.561673   
O180     O      0.832920000000     0.413490000000     0.009580000000    -0.561585   
O181     O      0.832140000000     0.360120000000     0.514430000000    -0.5573     
O182     O      0.923130000000     0.358800000000     0.010520000000    -0.558479   
O183     O      0.879190000000     0.360520000000     0.057280000000    -0.561011   
O184     O      0.876200000000     0.357930000000     0.466880000000    -0.557847   
O185     O      0.886140000000     0.412990000000     0.217180000000    -0.558114   
O186     O      0.873700000000     0.409930000000     0.306750000000    -0.56212    
O187     O      0.925100000000     0.411340000000     0.268210000000    -0.557517   
O188     O      0.834730000000     0.411080000000     0.256740000000    -0.55662    
O189     O      0.835740000000     0.357750000000     0.251360000000    -0.557231   
O190     O      0.925080000000     0.357840000000     0.268560000000    -0.557527   
O191     O      0.871860000000     0.356490000000     0.304910000000    -0.553294   
O192     O      0.888800000000     0.359570000000     0.215710000000    -0.556924   
O193     O      0.421050000000     0.891290000000     0.562700000000    -0.561365   
O194     O      0.423930000000     0.891430000000     0.972270000000    -0.555929   
O195     O      0.423630000000     0.936910000000     0.517190000000    -0.556456   
O196     O      0.421110000000     0.845750000000     0.018180000000    -0.55713    
O197     O      0.367870000000     0.847300000000     0.512540000000    -0.557525   
O198     O      0.370190000000     0.938180000000     0.017880000000    -0.557875   
O199     O      0.370630000000     0.895280000000     0.970700000000    -0.558209   
O200     O      0.367640000000     0.890090000000     0.561130000000    -0.555607   
O201     O      0.423970000000     0.882920000000     0.811610000000    -0.557061   
O202     O      0.421110000000     0.895630000000     0.721910000000    -0.559974   
O203     O      0.423450000000     0.934340000000     0.772880000000    -0.559946   
O204     O      0.421830000000     0.844260000000     0.760270000000    -0.559449   
O205     O      0.368530000000     0.844650000000     0.765680000000    -0.559439   
O206     O      0.370000000000     0.935380000000     0.772580000000    -0.560073   
O207     O      0.367700000000     0.894110000000     0.723390000000    -0.558004   
O208     O      0.370620000000     0.885970000000     0.813460000000    -0.563628   
O209     O      0.426910000000     0.139040000000     0.955110000000    -0.551048   
O210     O      0.426650000000     0.150580000000     0.545140000000    -0.557023   
O211     O      0.426420000000     0.099690000000     0.006380000000    -0.555729   
O212     O      0.427070000000     0.190130000000     0.495170000000    -0.556304   
O213     O      0.373650000000     0.190120000000     0.991470000000    -0.555368   
O214     O      0.372980000000     0.100400000000     0.507640000000    -0.556621   
O215     O      0.373240000000     0.152760000000     0.544520000000    -0.55367    
O216     O      0.373480000000     0.137580000000     0.954960000000    -0.556291   
O217     O      0.427330000000     0.135870000000     0.703300000000    -0.555268   
O218     O      0.426980000000     0.140350000000     0.793990000000    -0.555425   
O219     O      0.426370000000     0.092550000000     0.750960000000    -0.558987   
O220     O      0.427980000000     0.183450000000     0.746860000000    -0.558796   
O221     O      0.374560000000     0.184010000000     0.742870000000    -0.55928    
O222     O      0.372940000000     0.093560000000     0.752330000000    -0.559881   
O223     O      0.373600000000     0.143180000000     0.793390000000    -0.553839   
O224     O      0.373890000000     0.134570000000     0.703010000000    -0.557686   
O225     O      0.890300000000     0.595930000000     0.563170000000    -0.557857   
O226     O      0.881430000000     0.598490000000     0.973050000000    -0.55846    
O227     O      0.931460000000     0.598540000000     0.513610000000    -0.55955    
O228     O      0.841050000000     0.595470000000     0.021780000000    -0.562007   
O229     O      0.839650000000     0.648780000000     0.527320000000    -0.55504    
O230     O      0.929740000000     0.652000000000     0.012930000000    -0.554264   
O231     O      0.877380000000     0.651810000000     0.975080000000    -0.556255   
O232     O      0.891270000000     0.649410000000     0.564320000000    -0.563438   
O233     O      0.886260000000     0.599500000000     0.814750000000    -0.564416   
O234     O      0.893850000000     0.596750000000     0.724830000000    -0.56072    
O235     O      0.935130000000     0.598160000000     0.773590000000    -0.557432   
O236     O      0.844180000000     0.598570000000     0.766740000000    -0.555219   
O237     O      0.845050000000     0.651900000000     0.761580000000    -0.558401   
O238     O      0.935030000000     0.651670000000     0.774290000000    -0.561065   
O239     O      0.896540000000     0.650170000000     0.723480000000    -0.56046    
O240     O      0.884240000000     0.652950000000     0.813260000000    -0.556487   
O241     O      0.141980000000     0.604770000000     0.954140000000    -0.561724   
O242     O      0.129730000000     0.601530000000     0.543750000000    -0.557964   
O243     O      0.090650000000     0.601960000000     0.992820000000    -0.556001   
O244     O      0.181110000000     0.604770000000     0.504360000000    -0.554406   
O245     O      0.178650000000     0.658050000000     0.009490000000    -0.554216   
O246     O      0.089210000000     0.655440000000     0.492460000000    -0.556021   
O247     O      0.125700000000     0.654860000000     0.545130000000    -0.557121   
O248     O      0.142290000000     0.658240000000     0.955890000000    -0.549397   
O249     O      0.138470000000     0.601120000000     0.704570000000    -0.554715   
O250     O      0.135860000000     0.603640000000     0.795290000000    -0.558063   
O251     O      0.091770000000     0.601530000000     0.748830000000    -0.561006   
O252     O      0.182510000000     0.602840000000     0.751730000000    -0.560711   
O253     O      0.181940000000     0.656190000000     0.746460000000    -0.557022   
O254     O      0.090940000000     0.655020000000     0.749600000000    -0.558669   
O255     O      0.137440000000     0.657100000000     0.793760000000    -0.556789   
O256     O      0.135340000000     0.654510000000     0.703290000000    -0.561281   
O257     O      0.594800000000     0.132330000000     0.516600000000    -0.561679   
O258     O      0.594730000000     0.126770000000     0.926210000000    -0.559231   
O259     O      0.598050000000     0.084180000000     0.474070000000    -0.560327   
O260     O      0.591550000000     0.174790000000     0.969570000000    -0.56058    
O261     O      0.644850000000     0.178420000000     0.465620000000    -0.555654   
O262     O      0.651350000000     0.087960000000     0.975350000000    -0.556382   
O263     O      0.648160000000     0.128480000000     0.925870000000    -0.55978    
O264     O      0.647960000000     0.137970000000     0.516010000000    -0.556109   
O265     O      0.594230000000     0.136420000000     0.767330000000    -0.560355   
O266     O      0.594150000000     0.130790000000     0.676880000000    -0.555849   
O267     O      0.596500000000     0.088200000000     0.724920000000    -0.557446   
O268     O      0.591830000000     0.179090000000     0.720340000000    -0.55737    
O269     O      0.645190000000     0.181560000000     0.716210000000    -0.55685    
O270     O      0.649850000000     0.091130000000     0.726430000000    -0.558139   
O271     O      0.647610000000     0.131370000000     0.676690000000    -0.560146   
O272     O      0.647470000000     0.141280000000     0.766710000000    -0.557988   
O273     O      0.606080000000     0.876870000000     0.967000000000    -0.552887   
O274     O      0.608410000000     0.888010000000     0.557020000000    -0.559707   
O275     O      0.605980000000     0.927500000000     0.006850000000    -0.561112   
O276     O      0.607980000000     0.837330000000     0.517980000000    -0.559812   
O277     O      0.661300000000     0.837920000000     0.013030000000    -0.555049   
O278     O      0.659420000000     0.929080000000     0.507260000000    -0.554873   
O279     O      0.661850000000     0.887090000000     0.555640000000    -0.55865    
O280     O      0.659420000000     0.880130000000     0.965560000000    -0.559856   
O281     O      0.609940000000     0.884320000000     0.716150000000    -0.564047   
O282     O      0.607210000000     0.886790000000     0.806430000000    -0.560256   
O283     O      0.605370000000     0.931030000000     0.759950000000    -0.557737   
O284     O      0.612310000000     0.840140000000     0.761560000000    -0.557789   
O285     O      0.665500000000     0.844170000000     0.766240000000    -0.557667   
O286     O      0.658700000000     0.934720000000     0.759730000000    -0.558649   
O287     O      0.660340000000     0.892480000000     0.807920000000    -0.558777   
O288     O      0.663350000000     0.886160000000     0.717440000000    -0.554724   
O289     O      0.378050000000     0.435860000000     0.544830000000    -0.55538    
O290     O      0.386870000000     0.345450000000     0.536300000000    -0.55722    
O291     O      0.426830000000     0.395080000000     0.535610000000    -0.563936   
O292     O      0.337190000000     0.385690000000     0.545780000000    -0.559565   
O293     O      0.330600000000     0.396200000000     0.993890000000    -0.555078   
O294     O      0.420960000000     0.394990000000     0.982700000000    -0.552486   
O295     O      0.374480000000     0.349560000000     0.984590000000    -0.552141   
O296     O      0.376330000000     0.440280000000     0.991810000000    -0.557447   
O297     O      0.374630000000     0.431540000000     0.782970000000    -0.557694   
O298     O      0.388970000000     0.341750000000     0.778960000000    -0.559947   
O299     O      0.426060000000     0.393550000000     0.775260000000    -0.558951   
O300     O      0.336920000000     0.378860000000     0.786710000000    -0.554281   
O301     O      0.329480000000     0.386230000000     0.734410000000    -0.557431   
O302     O      0.419750000000     0.390880000000     0.722480000000    -0.553464   
O303     O      0.376360000000     0.342620000000     0.727150000000    -0.558253   
O304     O      0.371850000000     0.433400000000     0.729840000000    -0.560613   
O305     O      0.391130000000     0.598010000000     0.999550000000    -0.557346   
O306     O      0.375460000000     0.687780000000     0.000880000000    -0.557511   
O307     O      0.428450000000     0.650400000000     0.998710000000    -0.552605   
O308     O      0.338840000000     0.634230000000     0.001470000000    -0.560218   
O309     O      0.339740000000     0.639770000000     0.554510000000    -0.552492   
O310     O      0.430700000000     0.645620000000     0.551680000000    -0.557095   
O311     O      0.383030000000     0.687850000000     0.553650000000    -0.558726   
O312     O      0.388620000000     0.596970000000     0.552710000000    -0.555882   
O313     O      0.385660000000     0.591990000000     0.730730000000    -0.560432   
O314     O      0.392040000000     0.682620000000     0.730670000000    -0.56258    
O315     O      0.433810000000     0.634350000000     0.731090000000    -0.561639   
O316     O      0.343110000000     0.641130000000     0.730630000000    -0.557308   
O317     O      0.342720000000     0.635000000000     0.783610000000    -0.560402   
O318     O      0.433560000000     0.638220000000     0.784180000000    -0.557452   
O319     O      0.385860000000     0.682640000000     0.783640000000    -0.55546    
O320     O      0.389600000000     0.591570000000     0.783820000000    -0.558743   
O321     O      0.581510000000     0.374670000000     0.526700000000    -0.564637   
O322     O      0.672130000000     0.372410000000     0.526820000000    -0.559864   
O323     O      0.627240000000     0.419330000000     0.533030000000    -0.553776   
O324     O      0.625230000000     0.328930000000     0.520540000000    -0.557812   
O325     O      0.631790000000     0.336440000000     0.968140000000    -0.556326   
O326     O      0.622960000000     0.426190000000     0.980420000000    -0.555921   
O327     O      0.672440000000     0.385760000000     0.975180000000    -0.553967   
O328     O      0.581670000000     0.377300000000     0.973540000000    -0.551634   
O329     O      0.583860000000     0.381190000000     0.764460000000    -0.564847   
O330     O      0.674510000000     0.384730000000     0.764100000000    -0.560386   
O331     O      0.627980000000     0.427850000000     0.765280000000    -0.563296   
O332     O      0.629740000000     0.336880000000     0.763060000000    -0.558561   
O333     O      0.631130000000     0.338150000000     0.709720000000    -0.555798   
O334     O      0.628170000000     0.429260000000     0.712070000000    -0.552776   
O335     O      0.674670000000     0.384480000000     0.710730000000    -0.553047   
O336     O      0.583250000000     0.382160000000     0.711250000000    -0.549067   
O337     O      0.636130000000     0.583460000000     0.545950000000    -0.550461   
O338     O      0.632110000000     0.674720000000     0.549080000000    -0.554829   
O339     O      0.588850000000     0.627510000000     0.547120000000    -0.557575   
O340     O      0.679720000000     0.631690000000     0.547990000000    -0.554989   
O341     O      0.680170000000     0.627210000000     0.994840000000    -0.556164   
O342     O      0.589340000000     0.633830000000     0.994270000000    -0.551904   
O343     O      0.638840000000     0.676220000000     0.996200000000    -0.55262    
O344     O      0.632030000000     0.585550000000     0.992930000000    -0.557103   
O345     O      0.631130000000     0.588000000000     0.774490000000    -0.558388   
O346     O      0.648620000000     0.677010000000     0.783260000000    -0.553042   
O347     O      0.595260000000     0.640930000000     0.781300000000    -0.554554   
O348     O      0.684550000000     0.623210000000     0.776270000000    -0.554764   
O349     O      0.683360000000     0.634520000000     0.724180000000    -0.556308   
O350     O      0.592820000000     0.642060000000     0.728130000000    -0.561448   
O351     O      0.640910000000     0.683020000000     0.730830000000    -0.559553   
O352     O      0.633450000000     0.592780000000     0.721520000000    -0.55672    
O353     O      0.130370000000     0.411770000000     0.571740000000    -0.559446   
O354     O      0.125810000000     0.411620000000     0.981400000000    -0.559382   
O355     O      0.082640000000     0.411830000000     0.529000000000    -0.559821   
O356     O      0.173420000000     0.411150000000     0.023280000000    -0.560283   
O357     O      0.173180000000     0.357650000000     0.526830000000    -0.559985   
O358     O      0.082350000000     0.358340000000     0.027700000000    -0.560747   
O359     O      0.127310000000     0.358130000000     0.981470000000    -0.551939   
O360     O      0.128280000000     0.358310000000     0.572250000000    -0.557895   
O361     O      0.122930000000     0.413520000000     0.820840000000    -0.556771   
O362     O      0.136270000000     0.413180000000     0.731060000000    -0.559525   
O363     O      0.084740000000     0.412060000000     0.769320000000    -0.562356   
O364     O      0.174510000000     0.415130000000     0.781540000000    -0.563359   
O365     O      0.176330000000     0.361700000000     0.785180000000    -0.550712   
O366     O      0.086460000000     0.358590000000     0.768540000000    -0.552908   
O367     O      0.139660000000     0.359790000000     0.732110000000    -0.557092   
O368     O      0.123030000000     0.360020000000     0.821070000000    -0.55933    
O369     O      0.878810000000     0.411350000000     0.965270000000    -0.555403   
O370     O      0.877760000000     0.413980000000     0.556030000000    -0.554587   
O371     O      0.923670000000     0.412300000000     0.010860000000    -0.561643   
O372     O      0.832920000000     0.413490000000     0.509580000000    -0.561019   
O373     O      0.832140000000     0.360120000000     0.014430000000    -0.557445   
O374     O      0.923130000000     0.358800000000     0.510520000000    -0.558457   
O375     O      0.879190000000     0.360520000000     0.557280000000    -0.561678   
O376     O      0.876200000000     0.357930000000     0.966880000000    -0.554809   
O377     O      0.886140000000     0.412990000000     0.717180000000    -0.558168   
O378     O      0.873700000000     0.409930000000     0.806740000000    -0.562226   
O379     O      0.925100000000     0.411340000000     0.768210000000    -0.55754    
O380     O      0.834730000000     0.411080000000     0.756740000000    -0.55667    
O381     O      0.835740000000     0.357750000000     0.751360000000    -0.557237   
O382     O      0.925080000000     0.357840000000     0.768560000000    -0.557521   
O383     O      0.871860000000     0.356490000000     0.804900000000    -0.553359   
O384     O      0.888800000000     0.359570000000     0.715710000000    -0.556955   
V1       V      0.424580000000     0.891280000000     0.017660000000     1.38416    
V2       V      0.366920000000     0.892770000000     0.515660000000     1.39014    
V3       V      0.424740000000     0.889260000000     0.266580000000     1.38852    
V4       V      0.367060000000     0.890080000000     0.268690000000     1.39697    
V5       V      0.428900000000     0.144840000000     0.500290000000     1.38221    
V6       V      0.371200000000     0.145250000000     0.999620000000     1.39567    
V7       V      0.429310000000     0.137980000000     0.248760000000     1.3831     
V8       V      0.371600000000     0.138860000000     0.248030000000     1.38971    
V9       V      0.886270000000     0.594960000000     0.017880000000     1.39002    
V10      V      0.884540000000     0.652670000000     0.519880000000     1.38884    
V11      V      0.889710000000     0.596090000000     0.269960000000     1.39113    
V12      V      0.890090000000     0.653830000000     0.268130000000     1.39248    
V13      V      0.135930000000     0.601120000000     0.498760000000     1.38584    
V14      V      0.133900000000     0.658800000000     0.000730000000     1.36747    
V15      V      0.137190000000     0.600130000000     0.250120000000     1.3889     
V16      V      0.136400000000     0.657860000000     0.248310000000     1.39097    
V17      V      0.592650000000     0.129330000000     0.971540000000     1.39868    
V18      V      0.650240000000     0.133360000000     0.470780000000     1.38431    
V19      V      0.592030000000     0.133520000000     0.222270000000     1.38447    
V20      V      0.649670000000     0.136470000000     0.221560000000     1.39135    
V21      V      0.604970000000     0.882360000000     0.512220000000     1.39047    
V22      V      0.662650000000     0.883570000000     0.010400000000     1.3846     
V23      V      0.606570000000     0.885410000000     0.261090000000     1.39405    
V24      V      0.664120000000     0.889580000000     0.262880000000     1.38667    
V25      V      0.382420000000     0.390330000000     0.042800000000     1.38703    
V26      V      0.375360000000     0.395280000000     0.486040000000     1.38641    
V27      V      0.381890000000     0.386420000000     0.283150000000     1.38875    
V28      V      0.374180000000     0.388220000000     0.226270000000     1.38644    
V29      V      0.383400000000     0.642760000000     0.497960000000     1.3848     
V30      V      0.385470000000     0.642500000000     0.055330000000     1.37578    
V31      V      0.388600000000     0.637450000000     0.228600000000     1.39525    
V32      V      0.387990000000     0.636970000000     0.286020000000     1.38791    
V33      V      0.626650000000     0.373650000000     0.028970000000     1.3885     
V34      V      0.627200000000     0.381710000000     0.472130000000     1.38265    
V35      V      0.629060000000     0.382480000000     0.266310000000     1.40723    
V36      V      0.629130000000     0.383610000000     0.208770000000     1.36749    
V37      V      0.634180000000     0.629170000000     0.049740000000     1.37105    
V38      V      0.634950000000     0.630850000000     0.492380000000     1.39132    
V39      V      0.640090000000     0.632090000000     0.281020000000     1.37989    
V40      V      0.637800000000     0.638230000000     0.223980000000     1.39139    
V41      V      0.128070000000     0.413730000000     0.026440000000     1.3913     
V42      V      0.127750000000     0.355950000000     0.527010000000     1.38872    
V43      V      0.129530000000     0.415590000000     0.275800000000     1.39745    
V44      V      0.131460000000     0.357860000000     0.276730000000     1.37787    
V45      V      0.878310000000     0.414930000000     0.510440000000     1.38886    
V46      V      0.877620000000     0.357190000000     0.012270000000     1.38817    
V47      V      0.879930000000     0.413480000000     0.262180000000     1.39067    
V48      V      0.880390000000     0.355750000000     0.260100000000     1.38322    
V49      V      0.424580000000     0.891280000000     0.517670000000     1.38783    
V50      V      0.366920000000     0.892770000000     0.015660000000     1.38627    
V51      V      0.424740000000     0.889260000000     0.766580000000     1.38846    
V52      V      0.367060000000     0.890080000000     0.768690000000     1.39712    
V53      V      0.428900000000     0.144840000000     0.000290000000     1.36809    
V54      V      0.371200000000     0.145250000000     0.499620000000     1.38165    
V55      V      0.429310000000     0.137980000000     0.748760000000     1.38303    
V56      V      0.371600000000     0.138860000000     0.748030000000     1.38984    
V57      V      0.886270000000     0.594960000000     0.517880000000     1.39385    
V58      V      0.884540000000     0.652670000000     0.019880000000     1.38502    
V59      V      0.889710000000     0.596090000000     0.769960000000     1.39108    
V60      V      0.890090000000     0.653830000000     0.768130000000     1.39261    
V61      V      0.135930000000     0.601120000000     0.998760000000     1.40015    
V62      V      0.133900000000     0.658800000000     0.500730000000     1.3812     
V63      V      0.137190000000     0.600130000000     0.750120000000     1.38853    
V64      V      0.136400000000     0.657860000000     0.748310000000     1.39117    
V65      V      0.592650000000     0.129330000000     0.471540000000     1.39449    
V66      V      0.650240000000     0.133360000000     0.970780000000     1.38813    
V67      V      0.592030000000     0.133520000000     0.722270000000     1.3844     
V68      V      0.649670000000     0.136470000000     0.721560000000     1.39148    
V69      V      0.604970000000     0.882360000000     0.012220000000     1.38681    
V70      V      0.662650000000     0.883570000000     0.510400000000     1.38853    
V71      V      0.606570000000     0.885410000000     0.761090000000     1.39406    
V72      V      0.664120000000     0.889580000000     0.762880000000     1.38651    
V73      V      0.382420000000     0.390330000000     0.542800000000     1.39178    
V74      V      0.375360000000     0.395280000000     0.986040000000     1.38865    
V75      V      0.381890000000     0.386420000000     0.783150000000     1.38876    
V76      V      0.374180000000     0.388220000000     0.726270000000     1.38638    
V77      V      0.383400000000     0.642760000000     0.997960000000     1.39555    
V78      V      0.385470000000     0.642500000000     0.555330000000     1.38137    
V79      V      0.388600000000     0.637450000000     0.728600000000     1.39514    
V80      V      0.387990000000     0.636970000000     0.786020000000     1.38801    
V81      V      0.626650000000     0.373650000000     0.528960000000     1.39255    
V82      V      0.627200000000     0.381710000000     0.972130000000     1.38575    
V83      V      0.629060000000     0.382480000000     0.766310000000     1.40727    
V84      V      0.629130000000     0.383610000000     0.708770000000     1.36741    
V85      V      0.634180000000     0.629170000000     0.549740000000     1.37579    
V86      V      0.634950000000     0.630850000000     0.992380000000     1.39363    
V87      V      0.640090000000     0.632090000000     0.781020000000     1.37997    
V88      V      0.637800000000     0.638230000000     0.723980000000     1.39137    
V89      V      0.128070000000     0.413730000000     0.526440000000     1.39554    
V90      V      0.127750000000     0.355950000000     0.027010000000     1.38515    
V91      V      0.129530000000     0.415590000000     0.775810000000     1.39738    
V92      V      0.131460000000     0.357860000000     0.776730000000     1.37801    
V93      V      0.878310000000     0.414930000000     0.010440000000     1.38509    
V94      V      0.877620000000     0.357190000000     0.512270000000     1.39199    
V95      V      0.879930000000     0.413480000000     0.762180000000     1.39088    
V96      V      0.880390000000     0.355750000000     0.760100000000     1.38359    


