data_structure

_audit_creation_method RASPA-1.0
_audit_creation_date 2023-5-19
_audit_author_name 'Poobodin Mano'

_cell_length_a    42.167
_cell_length_b    41.2908
_cell_length_c    41.9961
_cell_angle_alpha 90
_cell_angle_beta  90
_cell_angle_gamma 90
_cell_volume      73119.8

_symmetry_cell_setting          triclinic
_symmetry_space_group_name_Hall 'P 1'
_symmetry_space_group_name_H-M  'P 1'
_symmetry_Int_Tables_number     1

_symmetry_equiv_pos_as_xyz 'x,y,z'

loop_
_atom_site_label
_atom_site_type_symbol
_atom_site_fract_x
_atom_site_fract_y
_atom_site_fract_z
_atom_site_charge
C1       C      0.510220000000     0.071150000000     0.257500000000     0.471312   
C2       C      0.510600000000     0.449540000000     0.270560000000     0.474612   
C3       C      0.450380000000     0.510930000000     0.266450000000     0.477384   
C4       C      0.070300000000     0.508570000000     0.261570000000     0.476972   
C5       C      0.488880000000     0.264540000000     0.315280000000     0.476659   
C6       C      0.496630000000     0.269320000000     0.195470000000     0.477233   
C7       C      0.985580000000     0.327130000000     0.257380000000     0.476888   
C8       C      0.999630000000     0.205890000000     0.252610000000     0.467452   
C9       C      0.320800000000     0.016560000000     0.254370000000     0.469822   
C10      C      0.200700000000     0.013140000000     0.251040000000     0.470167   
C11      C      0.262380000000     0.523420000000     0.193100000000     0.475957   
C12      C      0.259140000000     0.505090000000     0.312190000000     0.478744   
C13      C      0.268090000000     0.025460000000     0.062190000000     0.467976   
C14      C      0.264190000000     0.010270000000     0.442510000000     0.469382   
C15      C      0.272560000000     0.077190000000     0.494410000000     0.478417   
C16      C      0.259500000000     0.456210000000     0.509470000000     0.46928    
C17      C      0.990860000000     0.263480000000     0.065340000000     0.473166   
C18      C      0.997960000000     0.261140000000     0.445160000000     0.471841   
C19      C      0.054340000000     0.263380000000     0.509340000000     0.472593   
C20      C      0.434650000000     0.262520000000     0.501420000000     0.479523   
C21      C      0.245270000000     0.200920000000     0.505910000000     0.467576   
C22      C      0.243540000000     0.323480000000     0.504720000000     0.473043   
C23      C      0.184550000000     0.260820000000     0.004840000000     0.463179   
C24      C      0.304180000000     0.261400000000     0.005880000000     0.458269   
C25      C      0.354980000000     0.272090000000     0.032750000000    -0.0116481  
C26      C      0.352210000000     0.235050000000     0.485110000000    -0.037134   
C27      C      0.385380000000     0.286930000000     0.019520000000    -0.00492665 
C28      C      0.384570000000     0.247680000000     0.473780000000     0.0916172  
C29      C      0.104740000000     0.293000000000     0.503310000000    -0.0103265  
C30      C      0.103260000000     0.238270000000     0.029980000000    -0.0356418  
C31      C      0.134670000000     0.282960000000     0.485360000000    -0.00535437 
C32      C      0.134960000000     0.229630000000     0.014110000000     0.08059    
C33      C      0.281820000000     0.401610000000     0.001750000000    -0.0341965  
C34      C      0.230090000000     0.409020000000     0.030970000000    -0.0359866  
C35      C      0.267760000000     0.372770000000     0.483950000000    -0.00594958 
C36      C      0.217950000000     0.376980000000     0.516340000000     0.0903202  
C37      C      0.264090000000     0.150130000000     0.031090000000    -0.0113616  
C38      C      0.233460000000     0.148650000000     0.479620000000    -0.0386122  
C39      C      0.290140000000     0.128960000000     0.015950000000    -0.0149292  
C40      C      0.259620000000     0.127880000000     0.464810000000     0.0948999  
C41      C      0.240050000000     0.028930000000     0.392660000000    -0.0105615  
C42      C      0.290310000000     0.495500000000     0.392090000000    -0.0359458  
C43      C      0.229810000000     0.012960000000     0.361560000000    -0.00507411 
C44      C      0.278720000000     0.478170000000     0.361830000000     0.0926053  
C45      C      0.297400000000     0.522000000000     0.112920000000    -0.0106331  
C46      C      0.247040000000     0.053910000000     0.109680000000    -0.0361993  
C47      C      0.285970000000     0.506080000000     0.143510000000    -0.00482006 
C48      C      0.237350000000     0.041830000000     0.143080000000     0.0893478  
C49      C      0.016010000000     0.285610000000     0.394700000000    -0.00357129 
C50      C      0.489650000000     0.230860000000     0.395250000000    -0.0364062  
C51      C      0.997670000000     0.294320000000     0.364560000000    -0.01337    
C52      C      0.469480000000     0.240450000000     0.366310000000     0.0925999  
C53      C      0.467060000000     0.284420000000     0.114660000000    -0.00985884 
C54      C      0.506610000000     0.238450000000     0.115730000000    -0.0355809  
C55      C      0.980390000000     0.296600000000     0.146460000000    -0.00722405 
C56      C      0.023080000000     0.254070000000     0.144270000000     0.0939103  
C57      C      0.150230000000     0.039980000000     0.264000000000    -0.010283   
C58      C      0.151070000000     0.489160000000     0.230610000000    -0.0374276  
C59      C      0.121270000000     0.027270000000     0.281810000000    -0.00516547 
C60      C      0.119470000000     0.478780000000     0.245930000000     0.0912493  
C61      C      0.371790000000     0.495660000000     0.234320000000    -0.00983332 
C62      C      0.370140000000     0.044980000000     0.269440000000    -0.0369879  
C63      C      0.401120000000     0.483660000000     0.251980000000    -0.00657319 
C64      C      0.399000000000     0.032340000000     0.288160000000     0.0926012  
C65      C      0.026080000000     0.396810000000     0.248550000000    -0.00845906 
C66      C      0.993220000000     0.399850000000     0.298340000000    -0.0429618  
C67      C      0.500140000000     0.377740000000     0.232000000000    -0.00208735 
C68      C      0.467380000000     0.378970000000     0.282080000000     0.0900411  
C69      C      0.022850000000     0.124910000000     0.279030000000    -0.00983864 
C70      C      0.495010000000     0.118760000000     0.225720000000    -0.0367165  
C71      C      0.031630000000     0.158110000000     0.265450000000    -0.00779877 
C72      C      0.480370000000     0.151950000000     0.233820000000     0.0915876  
C73      C      0.510220000000     0.071150000000     0.757500000000     0.471262   
C74      C      0.510600000000     0.449540000000     0.770560000000     0.474578   
C75      C      0.450380000000     0.510930000000     0.766450000000     0.477346   
C76      C      0.070300000000     0.508570000000     0.761570000000     0.476928   
C77      C      0.488880000000     0.264540000000     0.815280000000     0.476648   
C78      C      0.496630000000     0.269320000000     0.695470000000     0.47721    
C79      C      0.985580000000     0.327130000000     0.757380000000     0.47688    
C80      C      0.999630000000     0.205890000000     0.752610000000     0.467469   
C81      C      0.320800000000     0.016560000000     0.754370000000     0.469822   
C82      C      0.200700000000     0.013140000000     0.751040000000     0.470173   
C83      C      0.262380000000     0.523420000000     0.693100000000     0.475903   
C84      C      0.259140000000     0.505090000000     0.812190000000     0.478789   
C85      C      0.268090000000     0.025460000000     0.562190000000     0.469939   
C86      C      0.264190000000     0.010270000000     0.942510000000     0.466643   
C87      C      0.272560000000     0.077190000000     0.994410000000     0.476383   
C88      C      0.259500000000     0.456210000000     0.009480000000     0.465647   
C89      C      0.990860000000     0.263480000000     0.565340000000     0.47407    
C90      C      0.997960000000     0.261140000000     0.945160000000     0.470242   
C91      C      0.054340000000     0.263380000000     0.009340000000     0.469753   
C92      C      0.434650000000     0.262520000000     0.001420000000     0.47737    
C93      C      0.245270000000     0.200920000000     0.005910000000     0.455253   
C94      C      0.243540000000     0.323480000000     0.004720000000     0.460723   
C95      C      0.184550000000     0.260820000000     0.504840000000     0.475754   
C96      C      0.304180000000     0.261400000000     0.505880000000     0.470887   
C97      C      0.354980000000     0.272090000000     0.532750000000    -0.0104016  
C98      C      0.352210000000     0.235050000000     0.985100000000    -0.0316686  
C99      C      0.385380000000     0.286930000000     0.519520000000    -0.00456225 
C100     C      0.384570000000     0.247680000000     0.973780000000     0.0981522  
C101     C      0.104740000000     0.293000000000     0.003310000000    -0.0342876  
C102     C      0.103260000000     0.238270000000     0.529980000000    -0.0370308  
C103     C      0.134670000000     0.282960000000     0.985360000000     0.0149919  
C104     C      0.134960000000     0.229630000000     0.514110000000     0.0914487  
C105     C      0.281820000000     0.401610000000     0.501750000000    -0.010119   
C106     C      0.230090000000     0.409020000000     0.530970000000    -0.0372671  
C107     C      0.267760000000     0.372770000000     0.983950000000     0.0144902  
C108     C      0.217950000000     0.376980000000     0.016340000000     0.0795095  
C109     C      0.264090000000     0.150130000000     0.531090000000    -0.011914   
C110     C      0.233460000000     0.148650000000     0.979620000000    -0.0312631  
C111     C      0.290140000000     0.128960000000     0.515950000000    -0.00683279 
C112     C      0.259620000000     0.127880000000     0.964810000000     0.0939192  
C113     C      0.240050000000     0.028930000000     0.892660000000    -0.0107435  
C114     C      0.290310000000     0.495500000000     0.892090000000    -0.0361778  
C115     C      0.229810000000     0.012960000000     0.861560000000    -0.00500677 
C116     C      0.278720000000     0.478170000000     0.861830000000     0.0927608  
C117     C      0.297400000000     0.522000000000     0.612920000000    -0.0105803  
C118     C      0.247040000000     0.053910000000     0.609680000000    -0.0361405  
C119     C      0.285970000000     0.506080000000     0.643510000000    -0.00485132 
C120     C      0.237350000000     0.041830000000     0.643080000000     0.0893428  
C121     C      0.016010000000     0.285610000000     0.894700000000    -0.00371032 
C122     C      0.489650000000     0.230860000000     0.895250000000    -0.0365666  
C123     C      0.997670000000     0.294320000000     0.864560000000    -0.0132838  
C124     C      0.469480000000     0.240450000000     0.866310000000     0.0927121  
C125     C      0.467060000000     0.284420000000     0.614660000000    -0.00983524 
C126     C      0.506610000000     0.238450000000     0.615720000000    -0.0355244  
C127     C      0.980390000000     0.296600000000     0.646460000000    -0.00725255 
C128     C      0.023080000000     0.254070000000     0.644270000000     0.093871   
C129     C      0.150230000000     0.039980000000     0.764000000000    -0.0102722  
C130     C      0.151070000000     0.489160000000     0.730610000000    -0.0374619  
C131     C      0.121270000000     0.027270000000     0.781810000000    -0.00522814 
C132     C      0.119470000000     0.478780000000     0.745930000000     0.09126    
C133     C      0.371790000000     0.495660000000     0.734320000000    -0.00989872 
C134     C      0.370140000000     0.044980000000     0.769440000000    -0.0370147  
C135     C      0.401120000000     0.483660000000     0.751980000000    -0.00657944 
C136     C      0.399000000000     0.032340000000     0.788160000000     0.0926281  
C137     C      0.026080000000     0.396810000000     0.748550000000    -0.00846693 
C138     C      0.993220000000     0.399850000000     0.798330000000    -0.042884   
C139     C      0.500140000000     0.377740000000     0.732000000000    -0.00211807 
C140     C      0.467380000000     0.378970000000     0.782080000000     0.090014   
C141     C      0.022850000000     0.124910000000     0.779030000000    -0.00990203 
C142     C      0.495010000000     0.118760000000     0.725720000000    -0.0367765  
C143     C      0.031630000000     0.158110000000     0.765450000000    -0.00779614 
C144     C      0.480370000000     0.151950000000     0.733820000000     0.0916053  
C145     C      0.510220000000     0.571150000000     0.257500000000     0.471276   
C146     C      0.510600000000     0.949540000000     0.270560000000     0.474549   
C147     C      0.450380000000     0.010930000000     0.266450000000     0.477366   
C148     C      0.070300000000     0.008570000000     0.261570000000     0.476943   
C149     C      0.488880000000     0.764540000000     0.315280000000     0.476634   
C150     C      0.496630000000     0.769320000000     0.195470000000     0.477208   
C151     C      0.985580000000     0.827130000000     0.257380000000     0.476862   
C152     C      0.999630000000     0.705890000000     0.252610000000     0.467547   
C153     C      0.320800000000     0.516560000000     0.254370000000     0.470009   
C154     C      0.200700000000     0.513140000000     0.251040000000     0.470348   
C155     C      0.262380000000     0.023420000000     0.193100000000     0.475751   
C156     C      0.259140000000     0.005090000000     0.312190000000     0.478539   
C157     C      0.268090000000     0.525460000000     0.062190000000     0.467998   
C158     C      0.264190000000     0.510270000000     0.442510000000     0.469381   
C159     C      0.272560000000     0.577190000000     0.494410000000     0.478424   
C160     C      0.259500000000     0.956210000000     0.509470000000     0.469257   
C161     C      0.990860000000     0.763480000000     0.065340000000     0.473165   
C162     C      0.997960000000     0.761140000000     0.445160000000     0.47184    
C163     C      0.054340000000     0.763380000000     0.509340000000     0.47259    
C164     C      0.434650000000     0.762520000000     0.501420000000     0.479522   
C165     C      0.245270000000     0.700920000000     0.505910000000     0.467701   
C166     C      0.243540000000     0.823480000000     0.504720000000     0.473044   
C167     C      0.184550000000     0.760820000000     0.004840000000     0.46318    
C168     C      0.304180000000     0.761400000000     0.005880000000     0.458269   
C169     C      0.354980000000     0.772090000000     0.032750000000    -0.011648   
C170     C      0.352210000000     0.735050000000     0.485110000000    -0.0371344  
C171     C      0.385380000000     0.786930000000     0.019520000000    -0.00492792 
C172     C      0.384570000000     0.747680000000     0.473780000000     0.0916166  
C173     C      0.104740000000     0.793000000000     0.503310000000    -0.010329   
C174     C      0.103260000000     0.738270000000     0.029980000000    -0.0356887  
C175     C      0.134670000000     0.782960000000     0.485360000000    -0.00535303 
C176     C      0.134960000000     0.729630000000     0.014110000000     0.0806043  
C177     C      0.281820000000     0.901610000000     0.001750000000    -0.0342147  
C178     C      0.230090000000     0.909020000000     0.030970000000    -0.03599    
C179     C      0.267760000000     0.872770000000     0.483950000000    -0.00594175 
C180     C      0.217950000000     0.876980000000     0.516340000000     0.0903228  
C181     C      0.264090000000     0.650130000000     0.031090000000    -0.0113612  
C182     C      0.233460000000     0.648650000000     0.479620000000    -0.0386134  
C183     C      0.290140000000     0.628960000000     0.015950000000    -0.0149291  
C184     C      0.259620000000     0.627880000000     0.464810000000     0.0949028  
C185     C      0.240050000000     0.528930000000     0.392660000000    -0.0106147  
C186     C      0.290310000000     0.995500000000     0.392090000000    -0.0356525  
C187     C      0.229810000000     0.512960000000     0.361560000000    -0.00485999 
C188     C      0.278720000000     0.978170000000     0.361830000000     0.0926431  
C189     C      0.297400000000     0.022000000000     0.112920000000    -0.0105465  
C190     C      0.247040000000     0.553910000000     0.109680000000    -0.036203   
C191     C      0.285970000000     0.006080000000     0.143510000000    -0.00521209 
C192     C      0.237350000000     0.541830000000     0.143080000000     0.0893628  
C193     C      0.016010000000     0.785610000000     0.394700000000    -0.00357075 
C194     C      0.489650000000     0.730860000000     0.395250000000    -0.0364064  
C195     C      0.997670000000     0.794320000000     0.364560000000    -0.013373   
C196     C      0.469480000000     0.740450000000     0.366310000000     0.0925977  
C197     C      0.467060000000     0.784420000000     0.114660000000    -0.0098585  
C198     C      0.506610000000     0.738450000000     0.115730000000    -0.0355808  
C199     C      0.980390000000     0.796600000000     0.146460000000    -0.00722668 
C200     C      0.023080000000     0.754070000000     0.144270000000     0.0939077  
C201     C      0.150230000000     0.539980000000     0.264000000000    -0.0102725  
C202     C      0.151070000000     0.989160000000     0.230610000000    -0.03715    
C203     C      0.121270000000     0.527270000000     0.281810000000    -0.00515809 
C204     C      0.119470000000     0.978780000000     0.245930000000     0.0913088  
C205     C      0.371790000000     0.995660000000     0.234320000000    -0.00955027 
C206     C      0.370140000000     0.544980000000     0.269440000000    -0.0369774  
C207     C      0.401120000000     0.983660000000     0.251980000000    -0.00652332 
C208     C      0.399000000000     0.532340000000     0.288160000000     0.0926098  
C209     C      0.026080000000     0.896810000000     0.248550000000    -0.00846056 
C210     C      0.993220000000     0.899850000000     0.298340000000    -0.0429684  
C211     C      0.500140000000     0.877740000000     0.232000000000    -0.00208993 
C212     C      0.467380000000     0.878970000000     0.282080000000     0.090043   
C213     C      0.022850000000     0.624910000000     0.279030000000    -0.00984599 
C214     C      0.495010000000     0.618760000000     0.225720000000    -0.0367134  
C215     C      0.031630000000     0.658110000000     0.265450000000    -0.00779126 
C216     C      0.480370000000     0.651950000000     0.233820000000     0.0915899  
C217     C      0.510220000000     0.571150000000     0.757500000000     0.471226   
C218     C      0.510600000000     0.949540000000     0.770560000000     0.474515   
C219     C      0.450380000000     0.010930000000     0.766450000000     0.477328   
C220     C      0.070300000000     0.008570000000     0.761570000000     0.476899   
C221     C      0.488880000000     0.764540000000     0.815280000000     0.476623   
C222     C      0.496630000000     0.769320000000     0.695470000000     0.477186   
C223     C      0.985580000000     0.827130000000     0.757380000000     0.476855   
C224     C      0.999630000000     0.705890000000     0.752610000000     0.467564   
C225     C      0.320800000000     0.516560000000     0.754370000000     0.470009   
C226     C      0.200700000000     0.513140000000     0.751040000000     0.470353   
C227     C      0.262380000000     0.023420000000     0.693100000000     0.475698   
C228     C      0.259140000000     0.005090000000     0.812190000000     0.478585   
C229     C      0.268090000000     0.525460000000     0.562190000000     0.469961   
C230     C      0.264190000000     0.510270000000     0.942510000000     0.466642   
C231     C      0.272560000000     0.577190000000     0.994410000000     0.47639    
C232     C      0.259500000000     0.956210000000     0.009480000000     0.465624   
C233     C      0.990860000000     0.763480000000     0.565340000000     0.474069   
C234     C      0.997960000000     0.761140000000     0.945160000000     0.470241   
C235     C      0.054340000000     0.763380000000     0.009340000000     0.46975    
C236     C      0.434650000000     0.762520000000     0.001420000000     0.477369   
C237     C      0.245270000000     0.700920000000     0.005910000000     0.455379   
C238     C      0.243540000000     0.823480000000     0.004720000000     0.460725   
C239     C      0.184550000000     0.760820000000     0.504840000000     0.475754   
C240     C      0.304180000000     0.761400000000     0.505880000000     0.470887   
C241     C      0.354980000000     0.772090000000     0.532750000000    -0.0104015  
C242     C      0.352210000000     0.735050000000     0.985100000000    -0.0316693  
C243     C      0.385380000000     0.786930000000     0.519520000000    -0.00456352 
C244     C      0.384570000000     0.747680000000     0.973780000000     0.0981514  
C245     C      0.104740000000     0.793000000000     0.003310000000    -0.0342887  
C246     C      0.103260000000     0.738270000000     0.529980000000    -0.0370787  
C247     C      0.134670000000     0.782960000000     0.985360000000     0.0149921  
C248     C      0.134960000000     0.729630000000     0.514110000000     0.091463   
C249     C      0.281820000000     0.901610000000     0.501750000000    -0.0101363  
C250     C      0.230090000000     0.909020000000     0.530970000000    -0.0372703  
C251     C      0.267760000000     0.872770000000     0.983950000000     0.0144974  
C252     C      0.217950000000     0.876980000000     0.016340000000     0.079513   
C253     C      0.264090000000     0.650130000000     0.531090000000    -0.0119111  
C254     C      0.233460000000     0.648650000000     0.979620000000    -0.0312671  
C255     C      0.290140000000     0.628960000000     0.515950000000    -0.00683338 
C256     C      0.259620000000     0.627880000000     0.964810000000     0.0939228  
C257     C      0.240050000000     0.528930000000     0.892660000000    -0.0107963  
C258     C      0.290310000000     0.995500000000     0.892090000000    -0.0358865  
C259     C      0.229810000000     0.512960000000     0.861560000000    -0.00479395 
C260     C      0.278720000000     0.978170000000     0.861830000000     0.0927985  
C261     C      0.297400000000     0.022000000000     0.612920000000    -0.0104941  
C262     C      0.247040000000     0.553910000000     0.609680000000    -0.0361442  
C263     C      0.285970000000     0.006080000000     0.643510000000    -0.00524236 
C264     C      0.237350000000     0.541830000000     0.643080000000     0.0893578  
C265     C      0.016010000000     0.785610000000     0.894700000000    -0.00370977 
C266     C      0.489650000000     0.730860000000     0.895250000000    -0.0365668  
C267     C      0.997670000000     0.794320000000     0.864560000000    -0.0132868  
C268     C      0.469480000000     0.740450000000     0.866310000000     0.0927099  
C269     C      0.467060000000     0.784420000000     0.614660000000    -0.00983491 
C270     C      0.506610000000     0.738450000000     0.615720000000    -0.0355242  
C271     C      0.980390000000     0.796600000000     0.646460000000    -0.00725517 
C272     C      0.023080000000     0.754070000000     0.644270000000     0.0938684  
C273     C      0.150230000000     0.539980000000     0.764000000000    -0.0102617  
C274     C      0.151070000000     0.989160000000     0.730610000000    -0.0371852  
C275     C      0.121270000000     0.527270000000     0.781810000000    -0.00522078 
C276     C      0.119470000000     0.978780000000     0.745930000000     0.0913192  
C277     C      0.371790000000     0.995660000000     0.734320000000    -0.00961657 
C278     C      0.370140000000     0.544980000000     0.769440000000    -0.0370042  
C279     C      0.401120000000     0.983660000000     0.751980000000    -0.0065299  
C280     C      0.399000000000     0.532340000000     0.788160000000     0.0926367  
C281     C      0.026080000000     0.896810000000     0.748550000000    -0.00846843 
C282     C      0.993220000000     0.899850000000     0.798330000000    -0.0428906  
C283     C      0.500140000000     0.877740000000     0.732000000000    -0.00212064 
C284     C      0.467380000000     0.878970000000     0.782080000000     0.0900159  
C285     C      0.022850000000     0.624910000000     0.779030000000    -0.00990939 
C286     C      0.495010000000     0.618760000000     0.725720000000    -0.0367733  
C287     C      0.031630000000     0.658110000000     0.765450000000    -0.00778862 
C288     C      0.480370000000     0.651950000000     0.733820000000     0.0916075  
C289     C      0.010220000000     0.071150000000     0.257500000000     0.471754   
C290     C      0.010600000000     0.449540000000     0.270560000000     0.475077   
C291     C      0.950380000000     0.510930000000     0.266450000000     0.477901   
C292     C      0.570300000000     0.508570000000     0.261570000000     0.476728   
C293     C      0.988880000000     0.264540000000     0.315280000000     0.47279    
C294     C      0.996630000000     0.269320000000     0.195470000000     0.473535   
C295     C      0.485580000000     0.327130000000     0.257380000000     0.480423   
C296     C      0.499630000000     0.205890000000     0.252610000000     0.473502   
C297     C      0.820800000000     0.016560000000     0.254370000000     0.46981    
C298     C      0.700700000000     0.013140000000     0.251040000000     0.47021    
C299     C      0.762380000000     0.523420000000     0.193100000000     0.475946   
C300     C      0.759140000000     0.505090000000     0.312190000000     0.478737   
C301     C      0.768090000000     0.025460000000     0.062190000000     0.46829    
C302     C      0.764190000000     0.010270000000     0.442510000000     0.469401   
C303     C      0.772560000000     0.077190000000     0.494410000000     0.478437   
C304     C      0.759500000000     0.456210000000     0.509470000000     0.469298   
C305     C      0.490860000000     0.263480000000     0.065340000000     0.473567   
C306     C      0.497960000000     0.261140000000     0.445160000000     0.472371   
C307     C      0.554340000000     0.263380000000     0.509340000000     0.473062   
C308     C      0.934650000000     0.262520000000     0.501420000000     0.479289   
C309     C      0.745270000000     0.200920000000     0.505910000000     0.46758    
C310     C      0.743540000000     0.323480000000     0.504720000000     0.473047   
C311     C      0.684550000000     0.260820000000     0.004840000000     0.463148   
C312     C      0.804180000000     0.261400000000     0.005880000000     0.458256   
C313     C      0.854980000000     0.272090000000     0.032750000000    -0.0116411  
C314     C      0.852210000000     0.235050000000     0.485110000000    -0.0371181  
C315     C      0.885380000000     0.286930000000     0.019520000000    -0.00493331 
C316     C      0.884570000000     0.247680000000     0.473780000000     0.0915959  
C317     C      0.604740000000     0.293000000000     0.503310000000    -0.0102841  
C318     C      0.603260000000     0.238270000000     0.029980000000    -0.0355969  
C319     C      0.634670000000     0.282960000000     0.485360000000    -0.00537626 
C320     C      0.634960000000     0.229630000000     0.014110000000     0.0805193  
C321     C      0.781820000000     0.401610000000     0.001750000000    -0.0342177  
C322     C      0.730090000000     0.409020000000     0.030970000000    -0.03597    
C323     C      0.767760000000     0.372770000000     0.483950000000    -0.00594913 
C324     C      0.717950000000     0.376980000000     0.516340000000     0.0903137  
C325     C      0.764090000000     0.150130000000     0.031090000000    -0.0113548  
C326     C      0.733460000000     0.148650000000     0.479620000000    -0.038586   
C327     C      0.790140000000     0.128960000000     0.015950000000    -0.0149328  
C328     C      0.759620000000     0.127880000000     0.464810000000     0.0948786  
C329     C      0.740050000000     0.028930000000     0.392660000000    -0.0105555  
C330     C      0.790310000000     0.495500000000     0.392090000000    -0.0359646  
C331     C      0.729810000000     0.012960000000     0.361560000000    -0.00506773 
C332     C      0.778720000000     0.478170000000     0.361830000000     0.0926064  
C333     C      0.797400000000     0.522000000000     0.112920000000    -0.0105997  
C334     C      0.747040000000     0.053910000000     0.109680000000    -0.0361768  
C335     C      0.785970000000     0.506080000000     0.143510000000    -0.00482853 
C336     C      0.737350000000     0.041830000000     0.143080000000     0.0893412  
C337     C      0.516010000000     0.285610000000     0.394700000000    -0.00966689 
C338     C      0.989650000000     0.230860000000     0.395250000000    -0.0396861  
C339     C      0.497670000000     0.294320000000     0.364560000000    -0.00622649 
C340     C      0.969480000000     0.240450000000     0.366310000000     0.0927918  
C341     C      0.967060000000     0.284420000000     0.114660000000    -0.00989697 
C342     C      0.006610000000     0.238450000000     0.115730000000    -0.0300278  
C343     C      0.480390000000     0.296600000000     0.146460000000    -0.00689782 
C344     C      0.523080000000     0.254070000000     0.144270000000     0.0930782  
C345     C      0.650230000000     0.039980000000     0.264000000000    -0.0102698  
C346     C      0.651070000000     0.489160000000     0.230610000000    -0.037433   
C347     C      0.621270000000     0.027270000000     0.281810000000    -0.00517194 
C348     C      0.619470000000     0.478780000000     0.245930000000     0.0912525  
C349     C      0.871790000000     0.495660000000     0.234320000000    -0.00982832 
C350     C      0.870140000000     0.044980000000     0.269440000000    -0.0369616  
C351     C      0.901120000000     0.483660000000     0.251980000000    -0.00655554 
C352     C      0.899000000000     0.032340000000     0.288160000000     0.0925402  
C353     C      0.526080000000     0.396810000000     0.248550000000    -0.00693951 
C354     C      0.493220000000     0.399850000000     0.298340000000    -0.0370969  
C355     C      0.000140000000     0.377740000000     0.232000000000     0.00392503 
C356     C      0.967380000000     0.378970000000     0.282080000000     0.0909607  
C357     C      0.522850000000     0.124910000000     0.279030000000    -0.00991735 
C358     C      0.995010000000     0.118760000000     0.225720000000    -0.0420669  
C359     C      0.531630000000     0.158110000000     0.265450000000    -0.00789382 
C360     C      0.980370000000     0.151950000000     0.233820000000     0.0904339  
C361     C      0.010220000000     0.071150000000     0.757500000000     0.4717     
C362     C      0.010600000000     0.449540000000     0.770560000000     0.475038   
C363     C      0.950380000000     0.510930000000     0.766450000000     0.477859   
C364     C      0.570300000000     0.508570000000     0.761570000000     0.476686   
C365     C      0.988880000000     0.264540000000     0.815280000000     0.472807   
C366     C      0.996630000000     0.269320000000     0.695470000000     0.473532   
C367     C      0.485580000000     0.327130000000     0.757380000000     0.480393   
C368     C      0.499630000000     0.205890000000     0.752610000000     0.473482   
C369     C      0.820800000000     0.016560000000     0.754370000000     0.46981    
C370     C      0.700700000000     0.013140000000     0.751040000000     0.470216   
C371     C      0.762380000000     0.523420000000     0.693100000000     0.475893   
C372     C      0.759140000000     0.505090000000     0.812190000000     0.478782   
C373     C      0.768090000000     0.025460000000     0.562190000000     0.470258   
C374     C      0.764190000000     0.010270000000     0.942510000000     0.466657   
C375     C      0.772560000000     0.077190000000     0.994410000000     0.4764     
C376     C      0.759500000000     0.456210000000     0.009480000000     0.465659   
C377     C      0.490860000000     0.263480000000     0.565340000000     0.474471   
C378     C      0.497960000000     0.261140000000     0.945160000000     0.47077    
C379     C      0.554340000000     0.263380000000     0.009340000000     0.470215   
C380     C      0.934650000000     0.262520000000     0.001420000000     0.477137   
C381     C      0.745270000000     0.200920000000     0.005910000000     0.455233   
C382     C      0.743540000000     0.323480000000     0.004720000000     0.460703   
C383     C      0.684550000000     0.260820000000     0.504840000000     0.475755   
C384     C      0.804180000000     0.261400000000     0.505880000000     0.470892   
C385     C      0.854980000000     0.272090000000     0.532750000000    -0.0103937  
C386     C      0.852210000000     0.235050000000     0.985100000000    -0.0316467  
C387     C      0.885380000000     0.286930000000     0.519520000000    -0.00456858 
C388     C      0.884570000000     0.247680000000     0.973780000000     0.0981316  
C389     C      0.604740000000     0.293000000000     0.003310000000    -0.0343393  
C390     C      0.603260000000     0.238270000000     0.529980000000    -0.0369912  
C391     C      0.634670000000     0.282960000000     0.985360000000     0.0150475  
C392     C      0.634960000000     0.229630000000     0.514110000000     0.0914166  
C393     C      0.781820000000     0.401610000000     0.501750000000    -0.0101041  
C394     C      0.730090000000     0.409020000000     0.530970000000    -0.0372551  
C395     C      0.767760000000     0.372770000000     0.983950000000     0.0145254  
C396     C      0.717950000000     0.376980000000     0.016340000000     0.0794748  
C397     C      0.764090000000     0.150130000000     0.531090000000    -0.0119081  
C398     C      0.733460000000     0.148650000000     0.979620000000    -0.0312229  
C399     C      0.790140000000     0.128960000000     0.515950000000    -0.00682297 
C400     C      0.759620000000     0.127880000000     0.964810000000     0.0938962  
C401     C      0.740050000000     0.028930000000     0.892660000000    -0.0107379  
C402     C      0.790310000000     0.495500000000     0.892090000000    -0.036197   
C403     C      0.729810000000     0.012960000000     0.861560000000    -0.00500036 
C404     C      0.778720000000     0.478170000000     0.861830000000     0.0927621  
C405     C      0.797400000000     0.522000000000     0.612920000000    -0.0105466  
C406     C      0.747040000000     0.053910000000     0.609680000000    -0.0361179  
C407     C      0.785970000000     0.506080000000     0.643510000000    -0.00485995 
C408     C      0.737350000000     0.041830000000     0.643080000000     0.0893362  
C409     C      0.516010000000     0.285610000000     0.894700000000    -0.00974754 
C410     C      0.989650000000     0.230860000000     0.895250000000    -0.0398157  
C411     C      0.497670000000     0.294320000000     0.864560000000    -0.00620237 
C412     C      0.969480000000     0.240450000000     0.866310000000     0.0929013  
C413     C      0.967060000000     0.284420000000     0.614660000000    -0.00987354 
C414     C      0.006610000000     0.238450000000     0.615720000000    -0.030002   
C415     C      0.480390000000     0.296600000000     0.646460000000    -0.00692822 
C416     C      0.523080000000     0.254070000000     0.644270000000     0.0930429  
C417     C      0.650230000000     0.039980000000     0.764000000000    -0.010259   
C418     C      0.651070000000     0.489160000000     0.730610000000    -0.0374675  
C419     C      0.621270000000     0.027270000000     0.781810000000    -0.00523482 
C420     C      0.619470000000     0.478780000000     0.745930000000     0.0912633  
C421     C      0.871790000000     0.495660000000     0.734320000000    -0.00989361 
C422     C      0.870140000000     0.044980000000     0.769440000000    -0.0369885  
C423     C      0.901120000000     0.483660000000     0.751980000000    -0.00656196 
C424     C      0.899000000000     0.032340000000     0.788160000000     0.0925674  
C425     C      0.526080000000     0.396810000000     0.748550000000    -0.00695808 
C426     C      0.493220000000     0.399850000000     0.798330000000    -0.0370633  
C427     C      0.000140000000     0.377740000000     0.732000000000     0.00385159 
C428     C      0.967380000000     0.378970000000     0.782080000000     0.0909268  
C429     C      0.522850000000     0.124910000000     0.779030000000    -0.00998058 
C430     C      0.995010000000     0.118760000000     0.725720000000    -0.0420951  
C431     C      0.531630000000     0.158110000000     0.765450000000    -0.00789009 
C432     C      0.980370000000     0.151950000000     0.733820000000     0.0904591  
C433     C      0.010220000000     0.571150000000     0.257500000000     0.471719   
C434     C      0.010600000000     0.949540000000     0.270560000000     0.475014   
C435     C      0.950380000000     0.010930000000     0.266450000000     0.477882   
C436     C      0.570300000000     0.008570000000     0.261570000000     0.4767     
C437     C      0.988880000000     0.764540000000     0.315280000000     0.472765   
C438     C      0.996630000000     0.769320000000     0.195470000000     0.47351    
C439     C      0.485580000000     0.827130000000     0.257380000000     0.480398   
C440     C      0.499630000000     0.705890000000     0.252610000000     0.473601   
C441     C      0.820800000000     0.516560000000     0.254370000000     0.469996   
C442     C      0.700700000000     0.513140000000     0.251040000000     0.470391   
C443     C      0.762380000000     0.023420000000     0.193100000000     0.475741   
C444     C      0.759140000000     0.005090000000     0.312190000000     0.478533   
C445     C      0.768090000000     0.525460000000     0.062190000000     0.468312   
C446     C      0.764190000000     0.510270000000     0.442510000000     0.4694     
C447     C      0.772560000000     0.577190000000     0.494410000000     0.478444   
C448     C      0.759500000000     0.956210000000     0.509470000000     0.469275   
C449     C      0.490860000000     0.763480000000     0.065340000000     0.473566   
C450     C      0.497960000000     0.761140000000     0.445160000000     0.47237    
C451     C      0.554340000000     0.763380000000     0.509340000000     0.473058   
C452     C      0.934650000000     0.762520000000     0.501420000000     0.479288   
C453     C      0.745270000000     0.700920000000     0.505910000000     0.467705   
C454     C      0.743540000000     0.823480000000     0.504720000000     0.473048   
C455     C      0.684550000000     0.760820000000     0.004840000000     0.463149   
C456     C      0.804180000000     0.761400000000     0.005880000000     0.458257   
C457     C      0.854980000000     0.772090000000     0.032750000000    -0.011641   
C458     C      0.852210000000     0.735050000000     0.485110000000    -0.0371185  
C459     C      0.885380000000     0.786930000000     0.019520000000    -0.00493457 
C460     C      0.884570000000     0.747680000000     0.473780000000     0.0915953  
C461     C      0.604740000000     0.793000000000     0.503310000000    -0.0102865  
C462     C      0.603260000000     0.738270000000     0.029980000000    -0.0356436  
C463     C      0.634670000000     0.782960000000     0.485360000000    -0.00537492 
C464     C      0.634960000000     0.729630000000     0.014110000000     0.0805335  
C465     C      0.781820000000     0.901610000000     0.001750000000    -0.0342359  
C466     C      0.730090000000     0.909020000000     0.030970000000    -0.0359734  
C467     C      0.767760000000     0.872770000000     0.483950000000    -0.00594131 
C468     C      0.717950000000     0.876980000000     0.516340000000     0.0903162  
C469     C      0.764090000000     0.650130000000     0.031090000000    -0.0113543  
C470     C      0.733460000000     0.648650000000     0.479620000000    -0.0385872  
C471     C      0.790140000000     0.628960000000     0.015950000000    -0.0149326  
C472     C      0.759620000000     0.627880000000     0.464810000000     0.0948816  
C473     C      0.740050000000     0.528930000000     0.392660000000    -0.0106086  
C474     C      0.790310000000     0.995500000000     0.392090000000    -0.0356721  
C475     C      0.729810000000     0.512960000000     0.361560000000    -0.0048541  
C476     C      0.778720000000     0.978170000000     0.361830000000     0.0926442  
C477     C      0.797400000000     0.022000000000     0.112920000000    -0.0105135  
C478     C      0.747040000000     0.553910000000     0.109680000000    -0.0361805  
C479     C      0.785970000000     0.006080000000     0.143510000000    -0.00521921 
C480     C      0.737350000000     0.541830000000     0.143080000000     0.0893562  
C481     C      0.516010000000     0.785610000000     0.394700000000    -0.00966703 
C482     C      0.989650000000     0.730860000000     0.395250000000    -0.0396867  
C483     C      0.497670000000     0.794320000000     0.364560000000    -0.00622866 
C484     C      0.969480000000     0.740450000000     0.366310000000     0.0927896  
C485     C      0.967060000000     0.784420000000     0.114660000000    -0.00989664 
C486     C      0.006610000000     0.738450000000     0.115730000000    -0.0300271  
C487     C      0.480390000000     0.796600000000     0.146460000000    -0.00690043 
C488     C      0.523080000000     0.754070000000     0.144270000000     0.0930755  
C489     C      0.650230000000     0.539980000000     0.264000000000    -0.0102593  
C490     C      0.651070000000     0.989160000000     0.230610000000    -0.0371557  
C491     C      0.621270000000     0.527270000000     0.281810000000    -0.00516456 
C492     C      0.619470000000     0.978780000000     0.245930000000     0.0913119  
C493     C      0.871790000000     0.995660000000     0.234320000000    -0.00954663 
C494     C      0.870140000000     0.544980000000     0.269440000000    -0.0369512  
C495     C      0.901120000000     0.983660000000     0.251980000000    -0.00650605 
C496     C      0.899000000000     0.532340000000     0.288160000000     0.0925487  
C497     C      0.526080000000     0.896810000000     0.248550000000    -0.00694081 
C498     C      0.493220000000     0.899850000000     0.298340000000    -0.0371027  
C499     C      0.000140000000     0.877740000000     0.232000000000     0.00392314 
C500     C      0.967380000000     0.878970000000     0.282080000000     0.0909627  
C501     C      0.522850000000     0.624910000000     0.279030000000    -0.00992473 
C502     C      0.995010000000     0.618760000000     0.225720000000    -0.0420642  
C503     C      0.531630000000     0.658110000000     0.265450000000    -0.00788616 
C504     C      0.980370000000     0.651950000000     0.233820000000     0.0904358  
C505     C      0.010220000000     0.571150000000     0.757500000000     0.471665   
C506     C      0.010600000000     0.949540000000     0.770560000000     0.474975   
C507     C      0.950380000000     0.010930000000     0.766450000000     0.477841   
C508     C      0.570300000000     0.008570000000     0.761570000000     0.476657   
C509     C      0.988880000000     0.764540000000     0.815280000000     0.472782   
C510     C      0.996630000000     0.769320000000     0.695470000000     0.473507   
C511     C      0.485580000000     0.827130000000     0.757380000000     0.480368   
C512     C      0.499630000000     0.705890000000     0.752610000000     0.47358    
C513     C      0.820800000000     0.516560000000     0.754370000000     0.469996   
C514     C      0.700700000000     0.513140000000     0.751040000000     0.470396   
C515     C      0.762380000000     0.023420000000     0.693100000000     0.475688   
C516     C      0.759140000000     0.005090000000     0.812190000000     0.478579   
C517     C      0.768090000000     0.525460000000     0.562190000000     0.47028    
C518     C      0.764190000000     0.510270000000     0.942510000000     0.466656   
C519     C      0.772560000000     0.577190000000     0.994410000000     0.476406   
C520     C      0.759500000000     0.956210000000     0.009480000000     0.465636   
C521     C      0.490860000000     0.763480000000     0.565340000000     0.47447    
C522     C      0.497960000000     0.761140000000     0.945160000000     0.470769   
C523     C      0.554340000000     0.763380000000     0.009340000000     0.470212   
C524     C      0.934650000000     0.762520000000     0.001420000000     0.477136   
C525     C      0.745270000000     0.700920000000     0.005910000000     0.455359   
C526     C      0.743540000000     0.823480000000     0.004720000000     0.460705   
C527     C      0.684550000000     0.760820000000     0.504840000000     0.475755   
C528     C      0.804180000000     0.761400000000     0.505880000000     0.470892   
C529     C      0.854980000000     0.772090000000     0.532750000000    -0.0103936  
C530     C      0.852210000000     0.735050000000     0.985100000000    -0.0316473  
C531     C      0.885380000000     0.786930000000     0.519520000000    -0.00456985 
C532     C      0.884570000000     0.747680000000     0.973780000000     0.0981307  
C533     C      0.604740000000     0.793000000000     0.003310000000    -0.0343404  
C534     C      0.603260000000     0.738270000000     0.529980000000    -0.037039   
C535     C      0.634670000000     0.782960000000     0.985360000000     0.0150477  
C536     C      0.634960000000     0.729630000000     0.514110000000     0.0914308  
C537     C      0.781820000000     0.901610000000     0.501750000000    -0.0101213  
C538     C      0.730090000000     0.909020000000     0.530970000000    -0.0372582  
C539     C      0.767760000000     0.872770000000     0.983950000000     0.0145325  
C540     C      0.717950000000     0.876980000000     0.016340000000     0.0794784  
C541     C      0.764090000000     0.650130000000     0.531090000000    -0.0119052  
C542     C      0.733460000000     0.648650000000     0.979620000000    -0.0312269  
C543     C      0.790140000000     0.628960000000     0.515950000000    -0.00682355 
C544     C      0.759620000000     0.627880000000     0.964810000000     0.0938998  
C545     C      0.740050000000     0.528930000000     0.892660000000    -0.0107906  
C546     C      0.790310000000     0.995500000000     0.892090000000    -0.0359066  
C547     C      0.729810000000     0.512960000000     0.861560000000    -0.00478803 
C548     C      0.778720000000     0.978170000000     0.861830000000     0.0927997  
C549     C      0.797400000000     0.022000000000     0.612920000000    -0.0104608  
C550     C      0.747040000000     0.553910000000     0.609680000000    -0.0361216  
C551     C      0.785970000000     0.006080000000     0.643510000000    -0.00524964 
C552     C      0.737350000000     0.541830000000     0.643080000000     0.0893512  
C553     C      0.516010000000     0.785610000000     0.894700000000    -0.00974767 
C554     C      0.989650000000     0.730860000000     0.895250000000    -0.0398163  
C555     C      0.497670000000     0.794320000000     0.864560000000    -0.00620453 
C556     C      0.969480000000     0.740450000000     0.866310000000     0.0928992  
C557     C      0.967060000000     0.784420000000     0.614660000000    -0.00987321 
C558     C      0.006610000000     0.738450000000     0.615720000000    -0.0300012  
C559     C      0.480390000000     0.796600000000     0.646460000000    -0.00693082 
C560     C      0.523080000000     0.754070000000     0.644270000000     0.0930402  
C561     C      0.650230000000     0.539980000000     0.764000000000    -0.0102486  
C562     C      0.651070000000     0.989160000000     0.730610000000    -0.0371912  
C563     C      0.621270000000     0.527270000000     0.781810000000    -0.00522748 
C564     C      0.619470000000     0.978780000000     0.745930000000     0.0913225  
C565     C      0.871790000000     0.995660000000     0.734320000000    -0.00961282 
C566     C      0.870140000000     0.544980000000     0.769440000000    -0.0369781  
C567     C      0.901120000000     0.983660000000     0.751980000000    -0.00651279 
C568     C      0.899000000000     0.532340000000     0.788160000000     0.0925759  
C569     C      0.526080000000     0.896810000000     0.748550000000    -0.00695938 
C570     C      0.493220000000     0.899850000000     0.798330000000    -0.037069   
C571     C      0.000140000000     0.877740000000     0.732000000000     0.0038497  
C572     C      0.967380000000     0.878970000000     0.782080000000     0.0909289  
C573     C      0.522850000000     0.624910000000     0.779030000000    -0.00998796 
C574     C      0.995010000000     0.618760000000     0.725720000000    -0.0420924  
C575     C      0.531630000000     0.658110000000     0.765450000000    -0.00788243 
C576     C      0.980370000000     0.651950000000     0.733820000000     0.0904609  
H1       H      0.379110000000     0.308020000000     0.504270000000     0.0366226  
H2       H      0.341540000000     0.291110000000     0.045800000000     0.0362018  
H3       H      0.379690000000     0.266860000000     0.455800000000     0.0166812  
H4       H      0.337390000000     0.228990000000     0.464010000000     0.0500342  
H5       H      0.400130000000     0.295800000000     0.039720000000     0.0308922  
H6       H      0.361320000000     0.252560000000     0.049830000000     0.0363541  
H7       H      0.355940000000     0.212140000000     0.998540000000     0.0454134  
H8       H      0.421890000000     0.230680000000     0.445930000000     0.0875593  
H9       H      0.408200000000     0.203160000000     0.473940000000     0.09353    
H10      H      0.127710000000     0.271820000000     0.462280000000     0.0368226  
H11      H      0.090730000000     0.309640000000     0.487950000000     0.0374479  
H12      H      0.129130000000     0.215740000000     0.992160000000     0.0264001  
H13      H      0.088650000000     0.215980000000     0.032430000000     0.0477089  
H14      H      0.149200000000     0.304900000000     0.480300000000     0.0299695  
H15      H      0.111780000000     0.306370000000     0.025190000000     0.0405058  
H16      H      0.108090000000     0.247340000000     0.054450000000     0.0425701  
H17      H      0.173000000000     0.198790000000     0.023160000000     0.084924   
H18      H      0.159980000000     0.220280000000     0.056140000000     0.0938536  
H19      H      0.255930000000     0.381630000000     0.461930000000     0.0374093  
H20      H      0.298950000000     0.414040000000     0.485730000000     0.0381519  
H21      H      0.203060000000     0.383820000000     0.495510000000     0.0158697  
H22      H      0.209890000000     0.426130000000     0.033620000000     0.0473998  
H23      H      0.287330000000     0.356110000000     0.476940000000     0.0339563  
H24      H      0.295020000000     0.392550000000     0.022890000000     0.0406274  
H25      H      0.239180000000     0.403960000000     0.055330000000     0.0421614  
H26      H      0.185530000000     0.340950000000     0.528360000000     0.086925   
H27      H      0.210350000000     0.352540000000     0.059260000000     0.0935866  
H28      H      0.308700000000     0.145180000000     0.005950000000     0.0326233  
H29      H      0.275140000000     0.166620000000     0.048830000000     0.037602   
H30      H      0.276920000000     0.144950000000     0.453870000000     0.0190181  
H31      H      0.222160000000     0.163940000000     0.461010000000     0.0488515  
H32      H      0.301180000000     0.113470000000     0.034610000000     0.0311845  
H33      H      0.247200000000     0.134000000000     0.043820000000     0.0348205  
H34      H      0.214890000000     0.132340000000     0.489450000000     0.0453934  
H35      H      0.265110000000     0.092190000000     0.430420000000     0.0842005  
H36      H      0.227440000000     0.093710000000     0.446550000000     0.0911939  
H37      H      0.213680000000     0.992530000000     0.367520000000     0.0335634  
H38      H      0.218660000000     0.034240000000     0.407240000000     0.0363027  
H39      H      0.265170000000     0.456340000000     0.369410000000     0.0176607  
H40      H      0.304060000000     0.478060000000     0.406870000000     0.0473361  
H41      H      0.216010000000     0.030590000000     0.347050000000     0.0326893  
H42      H      0.251260000000     0.052530000000     0.386700000000     0.0344579  
H43      H      0.306460000000     0.515650000000     0.385240000000     0.0463356  
H44      H      0.300000000000     0.449920000000     0.326730000000     0.092324   
H45      H      0.317460000000     0.487560000000     0.331970000000     0.0863455  
H46      H      0.273210000000     0.483310000000     0.137430000000     0.0388036  
H47      H      0.312840000000     0.504590000000     0.099960000000     0.037612   
H48      H      0.219590000000     0.522210000000     0.139430000000     0.0155632  
H49      H      0.225350000000     0.057680000000     0.095080000000     0.0483938  
H50      H      0.306970000000     0.499570000000     0.158290000000     0.0305357  
H51      H      0.311750000000     0.043710000000     0.119100000000     0.0356339  
H52      H      0.258680000000     0.077960000000     0.112200000000     0.0408623  
H53      H      0.208720000000     0.059240000000     0.179630000000     0.0879691  
H54      H      0.238390000000     0.085610000000     0.167820000000     0.0925446  
H55      H      0.976500000000     0.308630000000     0.371740000000     0.032919   
H56      H      0.019880000000     0.307840000000     0.409120000000     0.0375272  
H57      H      0.447030000000     0.251270000000     0.375340000000     0.0164898  
H58      H      0.475610000000     0.214090000000     0.410490000000     0.0468389  
H59      H      0.012580000000     0.310210000000     0.349240000000     0.035365   
H60      H      0.039730000000     0.276430000000     0.387440000000     0.0346708  
H61      H      0.511130000000     0.217720000000     0.386890000000     0.0452162  
H62      H      0.442280000000     0.214930000000     0.333310000000     0.0929831  
H63      H      0.481670000000     0.202870000000     0.335030000000     0.0856703  
H64      H      0.996460000000     0.317290000000     0.141280000000     0.0310101  
H65      H      0.959550000000     0.305410000000     0.099860000000     0.0347526  
H66      H      0.040620000000     0.271890000000     0.134940000000     0.0180676  
H67      H      0.524650000000     0.225900000000     0.100780000000     0.0462155  
H68      H      0.960680000000     0.306170000000     0.161350000000     0.0345074  
H69      H      0.445440000000     0.269920000000     0.119820000000     0.0333553  
H70      H      0.489240000000     0.220140000000     0.124330000000     0.0452985  
H71      H      0.058200000000     0.239020000000     0.175950000000     0.0918758  
H72      H      0.524690000000     0.214590000000     0.175680000000     0.0845648  
H73      H      0.129340000000     0.012770000000     0.302610000000     0.0360012  
H74      H      0.164720000000     0.054600000000     0.280840000000     0.0367374  
H75      H      0.125610000000     0.461670000000     0.265480000000     0.0158548  
H76      H      0.165620000000     0.467270000000     0.225620000000     0.0485606  
H77      H      0.107170000000     0.048200000000     0.290750000000     0.0316824  
H78      H      0.142150000000     0.056120000000     0.244410000000     0.0370058  
H79      H      0.145970000000     0.500830000000     0.207290000000     0.0416923  
H80      H      0.081000000000     0.449960000000     0.233620000000     0.0874724  
H81      H      0.093280000000     0.476090000000     0.203740000000     0.0925228  
H82      H      0.393200000000     0.466330000000     0.270630000000     0.0334727  
H83      H      0.357690000000     0.474490000000     0.226100000000     0.0373473  
H84      H      0.389870000000     0.518170000000     0.308780000000     0.0162798  
H85      H      0.354510000000     0.058780000000     0.285930000000     0.0479666  
H86      H      0.416540000000     0.469980000000     0.235190000000     0.0353544  
H87      H      0.379820000000     0.008940000000     0.212740000000     0.0344408  
H88      H      0.378490000000     0.061840000000     0.250550000000     0.0452883  
H89      H      0.430780000000     0.053870000000     0.319830000000     0.0923469  
H90      H      0.430540000000     0.071140000000     0.282080000000     0.0873751  
H91      H      0.484120000000     0.395080000000     0.219690000000     0.0350424  
H92      H      0.539360000000     0.411350000000     0.230720000000     0.033391   
H93      H      0.449860000000     0.395980000000     0.271420000000     0.0165474  
H94      H      0.981890000000     0.417020000000     0.315290000000     0.0476214  
H95      H      0.510700000000     0.361510000000     0.213650000000     0.0312829  
H96      H      0.042980000000     0.379430000000     0.259570000000     0.0392662  
H97      H      0.009400000000     0.383660000000     0.311920000000     0.0458106  
H98      H      0.431190000000     0.347880000000     0.295800000000     0.0928883  
H99      H      0.966380000000     0.342020000000     0.316200000000     0.0837533  
H100     H      0.541110000000     0.173380000000     0.285110000000     0.0348558  
H101     H      0.005040000000     0.128000000000     0.298330000000     0.0383641  
H102     H      0.460000000000     0.147870000000     0.250210000000     0.0176847  
H103     H      0.476320000000     0.102770000000     0.215540000000     0.0461583  
H104     H      0.050790000000     0.155160000000     0.247490000000     0.0356326  
H105     H      0.044290000000     0.113610000000     0.289770000000     0.0341244  
H106     H      0.013660000000     0.121860000000     0.207220000000     0.0487802  
H107     H      0.449190000000     0.181750000000     0.208530000000     0.0911959  
H108     H      0.986510000000     0.178140000000     0.191680000000     0.0821108  
H109     H      0.379110000000     0.308020000000     0.004270000000     0.0340359  
H110     H      0.341540000000     0.291110000000     0.545800000000     0.0363503  
H111     H      0.379690000000     0.266860000000     0.955790000000     0.0175602  
H112     H      0.337390000000     0.228990000000     0.964010000000     0.0502431  
H113     H      0.400130000000     0.295800000000     0.539720000000     0.0311889  
H114     H      0.361320000000     0.252560000000     0.549830000000     0.037077   
H115     H      0.355940000000     0.212140000000     0.498540000000     0.0424501  
H116     H      0.421890000000     0.230680000000     0.945930000000     0.0894708  
H117     H      0.408200000000     0.203160000000     0.973940000000     0.0966974  
H118     H      0.127710000000     0.271820000000     0.962280000000     0.0344594  
H119     H      0.090730000000     0.309640000000     0.987950000000     0.0497574  
H120     H      0.129130000000     0.215740000000     0.492150000000     0.0166716  
H121     H      0.088650000000     0.215980000000     0.532430000000     0.0494872  
H122     H      0.149200000000     0.304900000000     0.980300000000     0.0287712  
H123     H      0.111780000000     0.306370000000     0.525190000000     0.0370488  
H124     H      0.108090000000     0.247340000000     0.554450000000     0.0427057  
H125     H      0.173000000000     0.198790000000     0.523160000000     0.0872007  
H126     H      0.159980000000     0.220280000000     0.556150000000     0.0938379  
H127     H      0.255930000000     0.381630000000     0.961930000000     0.0351172  
H128     H      0.298950000000     0.414040000000     0.985730000000     0.0505417  
H129     H      0.203060000000     0.383820000000     0.995510000000     0.0257584  
H130     H      0.209890000000     0.426130000000     0.533620000000     0.0491744  
H131     H      0.287330000000     0.356110000000     0.976940000000     0.0325784  
H132     H      0.295020000000     0.392550000000     0.522890000000     0.0371315  
H133     H      0.239180000000     0.403960000000     0.555330000000     0.042258   
H134     H      0.185530000000     0.340950000000     0.028360000000     0.0848184  
H135     H      0.210350000000     0.352540000000     0.559260000000     0.0936022  
H136     H      0.308700000000     0.145180000000     0.505950000000     0.0344829  
H137     H      0.275140000000     0.166620000000     0.548830000000     0.0380134  
H138     H      0.276920000000     0.144950000000     0.953870000000     0.0209407  
H139     H      0.222160000000     0.163940000000     0.961000000000     0.0487424  
H140     H      0.301180000000     0.113470000000     0.534610000000     0.0315487  
H141     H      0.247200000000     0.134000000000     0.543820000000     0.0366846  
H142     H      0.214890000000     0.132340000000     0.989450000000     0.0471126  
H143     H      0.265110000000     0.092190000000     0.930420000000     0.0846052  
H144     H      0.227440000000     0.093710000000     0.946550000000     0.0919573  
H145     H      0.213680000000     0.992530000000     0.867520000000     0.0340759  
H146     H      0.218660000000     0.034240000000     0.907240000000     0.0370493  
H147     H      0.265170000000     0.456340000000     0.869410000000     0.018104   
H148     H      0.304060000000     0.478060000000     0.906870000000     0.0484066  
H149     H      0.216010000000     0.030590000000     0.847050000000     0.0328803  
H150     H      0.251260000000     0.052530000000     0.886700000000     0.0346894  
H151     H      0.306460000000     0.515650000000     0.885240000000     0.0468105  
H152     H      0.300000000000     0.449920000000     0.826730000000     0.092481   
H153     H      0.317460000000     0.487560000000     0.831970000000     0.0864889  
H154     H      0.273210000000     0.483310000000     0.637430000000     0.0388486  
H155     H      0.312840000000     0.504590000000     0.599960000000     0.0379856  
H156     H      0.219590000000     0.522210000000     0.639430000000     0.0157136  
H157     H      0.225350000000     0.057680000000     0.595080000000     0.0490013  
H158     H      0.306970000000     0.499570000000     0.658290000000     0.0306378  
H159     H      0.311750000000     0.043710000000     0.619100000000     0.0359948  
H160     H      0.258680000000     0.077960000000     0.612200000000     0.0411686  
H161     H      0.208720000000     0.059240000000     0.679630000000     0.0880324  
H162     H      0.238390000000     0.085610000000     0.667820000000     0.0925962  
H163     H      0.976500000000     0.308630000000     0.871740000000     0.0334545  
H164     H      0.019880000000     0.307840000000     0.909120000000     0.0385878  
H165     H      0.447030000000     0.251270000000     0.875340000000     0.0168239  
H166     H      0.475610000000     0.214090000000     0.910490000000     0.0477206  
H167     H      0.012580000000     0.310210000000     0.849240000000     0.0355703  
H168     H      0.039730000000     0.276430000000     0.887440000000     0.0352857  
H169     H      0.511130000000     0.217720000000     0.886890000000     0.0458562  
H170     H      0.442280000000     0.214930000000     0.833310000000     0.0931115  
H171     H      0.481670000000     0.202870000000     0.835030000000     0.0858319  
H172     H      0.996460000000     0.317290000000     0.641280000000     0.0312134  
H173     H      0.959550000000     0.305410000000     0.599860000000     0.0350329  
H174     H      0.040620000000     0.271890000000     0.634950000000     0.0181541  
H175     H      0.524650000000     0.225900000000     0.600780000000     0.0464416  
H176     H      0.960680000000     0.306170000000     0.661350000000     0.0345877  
H177     H      0.445440000000     0.269920000000     0.619820000000     0.0334791  
H178     H      0.489240000000     0.220140000000     0.624330000000     0.0455196  
H179     H      0.058200000000     0.239020000000     0.675950000000     0.0919072  
H180     H      0.524690000000     0.214590000000     0.675680000000     0.0846141  
H181     H      0.129340000000     0.012770000000     0.802610000000     0.0363149  
H182     H      0.164720000000     0.054600000000     0.780840000000     0.036842   
H183     H      0.125610000000     0.461670000000     0.765480000000     0.0159785  
H184     H      0.165620000000     0.467270000000     0.725620000000     0.0486245  
H185     H      0.107170000000     0.048200000000     0.790750000000     0.0319163  
H186     H      0.142150000000     0.056120000000     0.744410000000     0.0370646  
H187     H      0.145970000000     0.500830000000     0.707290000000     0.0418182  
H188     H      0.081000000000     0.449960000000     0.733620000000     0.0875479  
H189     H      0.093280000000     0.476090000000     0.703740000000     0.0927172  
H190     H      0.393200000000     0.466330000000     0.770630000000     0.033589   
H191     H      0.357690000000     0.474490000000     0.726100000000     0.0374172  
H192     H      0.389870000000     0.518170000000     0.808780000000     0.0165485  
H193     H      0.354510000000     0.058780000000     0.785930000000     0.0480711  
H194     H      0.416540000000     0.469980000000     0.735190000000     0.0354423  
H195     H      0.379820000000     0.008940000000     0.712750000000     0.0345907  
H196     H      0.378490000000     0.061840000000     0.750550000000     0.0453428  
H197     H      0.430780000000     0.053870000000     0.819830000000     0.0927855  
H198     H      0.430540000000     0.071140000000     0.782080000000     0.0874503  
H199     H      0.484120000000     0.395080000000     0.719690000000     0.0351468  
H200     H      0.539360000000     0.411350000000     0.730720000000     0.0334842  
H201     H      0.449860000000     0.395980000000     0.771420000000     0.016627   
H202     H      0.981890000000     0.417020000000     0.815290000000     0.0480115  
H203     H      0.510700000000     0.361510000000     0.713650000000     0.0313634  
H204     H      0.042980000000     0.379430000000     0.759570000000     0.0393456  
H205     H      0.009400000000     0.383660000000     0.811920000000     0.0460602  
H206     H      0.431190000000     0.347880000000     0.795800000000     0.0929894  
H207     H      0.966380000000     0.342020000000     0.816200000000     0.0839497  
H208     H      0.541110000000     0.173380000000     0.785110000000     0.034994   
H209     H      0.005040000000     0.128000000000     0.798330000000     0.0386062  
H210     H      0.460000000000     0.147870000000     0.750210000000     0.0177253  
H211     H      0.476320000000     0.102770000000     0.715540000000     0.0463117  
H212     H      0.050790000000     0.155160000000     0.747490000000     0.0356854  
H213     H      0.044290000000     0.113610000000     0.789770000000     0.0343574  
H214     H      0.013660000000     0.121860000000     0.707220000000     0.0489314  
H215     H      0.449190000000     0.181750000000     0.708530000000     0.0912549  
H216     H      0.986510000000     0.178140000000     0.691680000000     0.0822096  
H217     H      0.379110000000     0.808020000000     0.504270000000     0.0366273  
H218     H      0.341540000000     0.791110000000     0.045800000000     0.0362037  
H219     H      0.379690000000     0.766860000000     0.455800000000     0.0166822  
H220     H      0.337390000000     0.728990000000     0.464010000000     0.0500338  
H221     H      0.400130000000     0.795800000000     0.039720000000     0.0308956  
H222     H      0.361320000000     0.752560000000     0.049830000000     0.0363541  
H223     H      0.355940000000     0.712140000000     0.998540000000     0.0454134  
H224     H      0.421890000000     0.730680000000     0.445930000000     0.0875596  
H225     H      0.408200000000     0.703160000000     0.473940000000     0.0935314  
H226     H      0.127710000000     0.771820000000     0.462280000000     0.0368232  
H227     H      0.090730000000     0.809640000000     0.487950000000     0.0374537  
H228     H      0.129130000000     0.715740000000     0.992160000000     0.0263978  
H229     H      0.088650000000     0.715990000000     0.032430000000     0.0477354  
H230     H      0.149200000000     0.804900000000     0.480300000000     0.0299721  
H231     H      0.111780000000     0.806370000000     0.025190000000     0.0405106  
H232     H      0.108090000000     0.747340000000     0.054450000000     0.0425806  
H233     H      0.173000000000     0.698790000000     0.023160000000     0.0849249  
H234     H      0.159980000000     0.720280000000     0.056140000000     0.0938539  
H235     H      0.255930000000     0.881630000000     0.461930000000     0.0374139  
H236     H      0.298950000000     0.914040000000     0.485730000000     0.0381671  
H237     H      0.203060000000     0.883820000000     0.495510000000     0.0158783  
H238     H      0.209890000000     0.926130000000     0.033620000000     0.0474215  
H239     H      0.287330000000     0.856110000000     0.476940000000     0.033958   
H240     H      0.295020000000     0.892560000000     0.022890000000     0.0406477  
H241     H      0.239180000000     0.903960000000     0.055330000000     0.0421741  
H242     H      0.185530000000     0.840950000000     0.528360000000     0.0869277  
H243     H      0.210350000000     0.852540000000     0.059260000000     0.0935901  
H244     H      0.308700000000     0.645180000000     0.005950000000     0.0326244  
H245     H      0.275140000000     0.666620000000     0.048830000000     0.0376053  
H246     H      0.276920000000     0.644950000000     0.453870000000     0.0190147  
H247     H      0.222160000000     0.663940000000     0.461010000000     0.0488558  
H248     H      0.301180000000     0.613470000000     0.034610000000     0.0311855  
H249     H      0.247200000000     0.634000000000     0.043820000000     0.0348207  
H250     H      0.214890000000     0.632340000000     0.489450000000     0.0453961  
H251     H      0.265110000000     0.592200000000     0.430420000000     0.0842376  
H252     H      0.227440000000     0.593710000000     0.446550000000     0.091203   
H253     H      0.213680000000     0.492530000000     0.367520000000     0.0334051  
H254     H      0.218660000000     0.534240000000     0.407240000000     0.0363342  
H255     H      0.265170000000     0.956340000000     0.369410000000     0.0176731  
H256     H      0.304060000000     0.978060000000     0.406870000000     0.0473107  
H257     H      0.216010000000     0.530590000000     0.347050000000     0.0326576  
H258     H      0.251260000000     0.552530000000     0.386700000000     0.0344672  
H259     H      0.306460000000     0.015650000000     0.385240000000     0.0461896  
H260     H      0.300000000000     0.949920000000     0.326730000000     0.0923351  
H261     H      0.317460000000     0.987560000000     0.331970000000     0.0864085  
H262     H      0.273210000000     0.983310000000     0.137430000000     0.0389917  
H263     H      0.312840000000     0.004600000000     0.099960000000     0.0375531  
H264     H      0.219590000000     0.022210000000     0.139430000000     0.0155345  
H265     H      0.225350000000     0.557680000000     0.095080000000     0.0484027  
H266     H      0.306970000000     0.999570000000     0.158290000000     0.0307359  
H267     H      0.311750000000     0.543710000000     0.119100000000     0.0356653  
H268     H      0.258680000000     0.577960000000     0.112200000000     0.0408612  
H269     H      0.208720000000     0.559240000000     0.179630000000     0.0879764  
H270     H      0.238390000000     0.585610000000     0.167820000000     0.0925433  
H271     H      0.976500000000     0.808630000000     0.371740000000     0.0329233  
H272     H      0.019880000000     0.807840000000     0.409120000000     0.0375321  
H273     H      0.447030000000     0.751270000000     0.375340000000     0.0164906  
H274     H      0.475610000000     0.714090000000     0.410490000000     0.04684    
H275     H      0.012580000000     0.810210000000     0.349240000000     0.0353695  
H276     H      0.039730000000     0.776430000000     0.387440000000     0.0346717  
H277     H      0.511130000000     0.717720000000     0.386890000000     0.0452168  
H278     H      0.442280000000     0.714930000000     0.333310000000     0.0929822  
H279     H      0.481670000000     0.702870000000     0.335030000000     0.0856693  
H280     H      0.996460000000     0.817290000000     0.141280000000     0.0310163  
H281     H      0.959550000000     0.805410000000     0.099860000000     0.0347571  
H282     H      0.040620000000     0.771890000000     0.134940000000     0.0180698  
H283     H      0.524650000000     0.725900000000     0.100780000000     0.0462162  
H284     H      0.960680000000     0.806170000000     0.161350000000     0.0345116  
H285     H      0.445440000000     0.769920000000     0.119820000000     0.0333555  
H286     H      0.489240000000     0.720140000000     0.124330000000     0.0452987  
H287     H      0.058200000000     0.739020000000     0.175950000000     0.0918746  
H288     H      0.524690000000     0.714590000000     0.175680000000     0.0845619  
H289     H      0.129340000000     0.512770000000     0.302610000000     0.0360394  
H290     H      0.164720000000     0.554600000000     0.280840000000     0.036738   
H291     H      0.125610000000     0.961670000000     0.265480000000     0.0158764  
H292     H      0.165620000000     0.967270000000     0.225620000000     0.0485292  
H293     H      0.107170000000     0.548200000000     0.290750000000     0.0316869  
H294     H      0.142150000000     0.556120000000     0.244410000000     0.0370102  
H295     H      0.145970000000     0.000830000000     0.207290000000     0.0415323  
H296     H      0.081000000000     0.949960000000     0.233620000000     0.0875021  
H297     H      0.093280000000     0.976090000000     0.203740000000     0.0925825  
H298     H      0.393200000000     0.966330000000     0.270630000000     0.0334955  
H299     H      0.357690000000     0.974490000000     0.226100000000     0.0373128  
H300     H      0.389870000000     0.018170000000     0.308780000000     0.0162418  
H301     H      0.354510000000     0.558780000000     0.285930000000     0.0479682  
H302     H      0.416540000000     0.969980000000     0.235190000000     0.0353903  
H303     H      0.379820000000     0.508940000000     0.212740000000     0.0345967  
H304     H      0.378490000000     0.561840000000     0.250550000000     0.0452914  
H305     H      0.430780000000     0.553870000000     0.319830000000     0.0923604  
H306     H      0.430540000000     0.571140000000     0.282080000000     0.0873771  
H307     H      0.484120000000     0.895080000000     0.219690000000     0.0350548  
H308     H      0.539360000000     0.911350000000     0.230720000000     0.0334024  
H309     H      0.449860000000     0.895980000000     0.271420000000     0.0165569  
H310     H      0.981890000000     0.917020000000     0.315290000000     0.0476395  
H311     H      0.510700000000     0.861510000000     0.213650000000     0.031289   
H312     H      0.042980000000     0.879430000000     0.259570000000     0.0392716  
H313     H      0.009400000000     0.883660000000     0.311920000000     0.0458197  
H314     H      0.431190000000     0.847880000000     0.295800000000     0.0928915  
H315     H      0.966380000000     0.842020000000     0.316200000000     0.0837565  
H316     H      0.541110000000     0.673380000000     0.285110000000     0.0348596  
H317     H      0.005040000000     0.628000000000     0.298330000000     0.0383672  
H318     H      0.460000000000     0.647870000000     0.250210000000     0.0176886  
H319     H      0.476320000000     0.602770000000     0.215540000000     0.0461636  
H320     H      0.050790000000     0.655160000000     0.247490000000     0.0356332  
H321     H      0.044290000000     0.613610000000     0.289770000000     0.034127   
H322     H      0.013660000000     0.621870000000     0.207220000000     0.0487805  
H323     H      0.449190000000     0.681750000000     0.208530000000     0.0911984  
H324     H      0.986510000000     0.678140000000     0.191680000000     0.0821091  
H325     H      0.379110000000     0.808020000000     0.004270000000     0.0340407  
H326     H      0.341540000000     0.791110000000     0.545800000000     0.0363522  
H327     H      0.379690000000     0.766860000000     0.955790000000     0.0175611  
H328     H      0.337390000000     0.728990000000     0.964010000000     0.0502427  
H329     H      0.400130000000     0.795800000000     0.539720000000     0.0311923  
H330     H      0.361320000000     0.752560000000     0.549830000000     0.0370769  
H331     H      0.355940000000     0.712140000000     0.498540000000     0.0424503  
H332     H      0.421890000000     0.730680000000     0.945930000000     0.0894711  
H333     H      0.408200000000     0.703160000000     0.973940000000     0.0966986  
H334     H      0.127710000000     0.771820000000     0.962280000000     0.0344602  
H335     H      0.090730000000     0.809640000000     0.987950000000     0.0497624  
H336     H      0.129130000000     0.715740000000     0.492150000000     0.0166697  
H337     H      0.088650000000     0.715990000000     0.532430000000     0.0495139  
H338     H      0.149200000000     0.804900000000     0.980300000000     0.0287738  
H339     H      0.111780000000     0.806370000000     0.525190000000     0.0370537  
H340     H      0.108090000000     0.747340000000     0.554450000000     0.0427165  
H341     H      0.173000000000     0.698790000000     0.523160000000     0.0872016  
H342     H      0.159980000000     0.720280000000     0.556150000000     0.0938383  
H343     H      0.255930000000     0.881630000000     0.961930000000     0.0351218  
H344     H      0.298950000000     0.914040000000     0.985730000000     0.0505563  
H345     H      0.203060000000     0.883820000000     0.995510000000     0.0257661  
H346     H      0.209890000000     0.926130000000     0.533620000000     0.049196   
H347     H      0.287330000000     0.856110000000     0.976940000000     0.0325801  
H348     H      0.295020000000     0.892560000000     0.522890000000     0.0371495  
H349     H      0.239180000000     0.903960000000     0.555330000000     0.0422708  
H350     H      0.185530000000     0.840950000000     0.028360000000     0.0848212  
H351     H      0.210350000000     0.852540000000     0.559260000000     0.0936058  
H352     H      0.308700000000     0.645180000000     0.505950000000     0.0344842  
H353     H      0.275140000000     0.666620000000     0.548830000000     0.0380162  
H354     H      0.276920000000     0.644950000000     0.953870000000     0.0209371  
H355     H      0.222160000000     0.663940000000     0.961000000000     0.0487473  
H356     H      0.301180000000     0.613470000000     0.534610000000     0.0315499  
H357     H      0.247200000000     0.634000000000     0.543820000000     0.0366844  
H358     H      0.214890000000     0.632340000000     0.989450000000     0.0471157  
H359     H      0.265110000000     0.592200000000     0.930420000000     0.0846424  
H360     H      0.227440000000     0.593710000000     0.946550000000     0.0919664  
H361     H      0.213680000000     0.492530000000     0.867520000000     0.0339186  
H362     H      0.218660000000     0.534240000000     0.907240000000     0.0370807  
H363     H      0.265170000000     0.956340000000     0.869410000000     0.0181162  
H364     H      0.304060000000     0.978060000000     0.906870000000     0.0483814  
H365     H      0.216010000000     0.530590000000     0.847050000000     0.0328488  
H366     H      0.251260000000     0.552530000000     0.886700000000     0.0346988  
H367     H      0.306460000000     0.015650000000     0.885240000000     0.0466654  
H368     H      0.300000000000     0.949920000000     0.826730000000     0.092492   
H369     H      0.317460000000     0.987560000000     0.831970000000     0.0865514  
H370     H      0.273210000000     0.983310000000     0.637430000000     0.0390362  
H371     H      0.312840000000     0.004600000000     0.599960000000     0.0379269  
H372     H      0.219590000000     0.022210000000     0.639430000000     0.0156849  
H373     H      0.225350000000     0.557680000000     0.595080000000     0.0490102  
H374     H      0.306970000000     0.999570000000     0.658290000000     0.0308375  
H375     H      0.311750000000     0.543710000000     0.619100000000     0.0360261  
H376     H      0.258680000000     0.577960000000     0.612200000000     0.0411675  
H377     H      0.208720000000     0.559240000000     0.679630000000     0.0880397  
H378     H      0.238390000000     0.585610000000     0.667820000000     0.092595   
H379     H      0.976500000000     0.808630000000     0.871740000000     0.0334587  
H380     H      0.019880000000     0.807840000000     0.909120000000     0.0385926  
H381     H      0.447030000000     0.751270000000     0.875340000000     0.0168247  
H382     H      0.475610000000     0.714090000000     0.910490000000     0.0477217  
H383     H      0.012580000000     0.810210000000     0.849240000000     0.0355746  
H384     H      0.039730000000     0.776430000000     0.887440000000     0.0352866  
H385     H      0.511130000000     0.717720000000     0.886890000000     0.0458568  
H386     H      0.442280000000     0.714930000000     0.833310000000     0.0931107  
H387     H      0.481670000000     0.702870000000     0.835030000000     0.0858309  
H388     H      0.996460000000     0.817290000000     0.641280000000     0.0312196  
H389     H      0.959550000000     0.805410000000     0.599860000000     0.0350374  
H390     H      0.040620000000     0.771890000000     0.634950000000     0.0181563  
H391     H      0.524650000000     0.725900000000     0.600780000000     0.0464423  
H392     H      0.960680000000     0.806170000000     0.661350000000     0.0345919  
H393     H      0.445440000000     0.769920000000     0.619820000000     0.0334793  
H394     H      0.489240000000     0.720140000000     0.624330000000     0.0455198  
H395     H      0.058200000000     0.739020000000     0.675950000000     0.0919061  
H396     H      0.524690000000     0.714590000000     0.675680000000     0.0846112  
H397     H      0.129340000000     0.512770000000     0.802610000000     0.036353   
H398     H      0.164720000000     0.554600000000     0.780840000000     0.0368426  
H399     H      0.125610000000     0.961670000000     0.765480000000     0.016      
H400     H      0.165620000000     0.967270000000     0.725620000000     0.0485932  
H401     H      0.107170000000     0.548200000000     0.790750000000     0.0319209  
H402     H      0.142150000000     0.556120000000     0.744410000000     0.037069   
H403     H      0.145970000000     0.000830000000     0.707290000000     0.0416586  
H404     H      0.081000000000     0.949960000000     0.733620000000     0.0875774  
H405     H      0.093280000000     0.976090000000     0.703740000000     0.0927767  
H406     H      0.393200000000     0.966330000000     0.770630000000     0.0336117  
H407     H      0.357690000000     0.974490000000     0.726100000000     0.0373828  
H408     H      0.389870000000     0.018170000000     0.808780000000     0.0165106  
H409     H      0.354510000000     0.558780000000     0.785930000000     0.0480727  
H410     H      0.416540000000     0.969980000000     0.735190000000     0.0354782  
H411     H      0.379820000000     0.508940000000     0.712750000000     0.0347462  
H412     H      0.378490000000     0.561840000000     0.750550000000     0.0453459  
H413     H      0.430780000000     0.553870000000     0.819830000000     0.0927989  
H414     H      0.430540000000     0.571140000000     0.782080000000     0.0874522  
H415     H      0.484120000000     0.895080000000     0.719690000000     0.0351591  
H416     H      0.539360000000     0.911350000000     0.730720000000     0.0334955  
H417     H      0.449860000000     0.895980000000     0.771420000000     0.0166364  
H418     H      0.981890000000     0.917020000000     0.815290000000     0.0480295  
H419     H      0.510700000000     0.861510000000     0.713650000000     0.0313695  
H420     H      0.042980000000     0.879430000000     0.759570000000     0.0393509  
H421     H      0.009400000000     0.883660000000     0.811920000000     0.0460692  
H422     H      0.431190000000     0.847880000000     0.795800000000     0.0929926  
H423     H      0.966380000000     0.842020000000     0.816200000000     0.0839529  
H424     H      0.541110000000     0.673380000000     0.785110000000     0.0349978  
H425     H      0.005040000000     0.628000000000     0.798330000000     0.0386093  
H426     H      0.460000000000     0.647870000000     0.750210000000     0.0177292  
H427     H      0.476320000000     0.602770000000     0.715540000000     0.046317   
H428     H      0.050790000000     0.655160000000     0.747490000000     0.035686   
H429     H      0.044290000000     0.613610000000     0.789770000000     0.0343599  
H430     H      0.013660000000     0.621870000000     0.707220000000     0.0489316  
H431     H      0.449190000000     0.681750000000     0.708530000000     0.0912574  
H432     H      0.986510000000     0.678140000000     0.691680000000     0.082208   
H433     H      0.879110000000     0.308020000000     0.504270000000     0.0365517  
H434     H      0.841540000000     0.291110000000     0.045800000000     0.0361809  
H435     H      0.879690000000     0.266860000000     0.455800000000     0.0166561  
H436     H      0.837390000000     0.228990000000     0.464010000000     0.0500158  
H437     H      0.900130000000     0.295800000000     0.039720000000     0.0308391  
H438     H      0.861320000000     0.252560000000     0.049830000000     0.036328   
H439     H      0.855940000000     0.212140000000     0.998540000000     0.0453719  
H440     H      0.921890000000     0.230680000000     0.445930000000     0.0875222  
H441     H      0.908200000000     0.203160000000     0.473940000000     0.0933976  
H442     H      0.627710000000     0.271820000000     0.462280000000     0.0366947  
H443     H      0.590730000000     0.309640000000     0.487950000000     0.0371345  
H444     H      0.629130000000     0.215740000000     0.992160000000     0.0262957  
H445     H      0.588650000000     0.215980000000     0.032430000000     0.0473872  
H446     H      0.649200000000     0.304900000000     0.480300000000     0.0299053  
H447     H      0.611780000000     0.306370000000     0.025190000000     0.0403255  
H448     H      0.608090000000     0.247340000000     0.054450000000     0.042401   
H449     H      0.673000000000     0.198790000000     0.023160000000     0.0848748  
H450     H      0.659980000000     0.220280000000     0.056140000000     0.0938078  
H451     H      0.755930000000     0.381630000000     0.461930000000     0.0373907  
H452     H      0.798950000000     0.414040000000     0.485730000000     0.0380948  
H453     H      0.703060000000     0.383820000000     0.495510000000     0.0158062  
H454     H      0.709890000000     0.426130000000     0.033620000000     0.0473146  
H455     H      0.787330000000     0.356110000000     0.476940000000     0.0339357  
H456     H      0.795020000000     0.392550000000     0.022890000000     0.0405914  
H457     H      0.739180000000     0.403960000000     0.055330000000     0.0421344  
H458     H      0.685530000000     0.340950000000     0.528360000000     0.0868731  
H459     H      0.710350000000     0.352540000000     0.059260000000     0.0935586  
H460     H      0.808700000000     0.145180000000     0.005950000000     0.0325764  
H461     H      0.775140000000     0.166620000000     0.048830000000     0.0375882  
H462     H      0.776920000000     0.144950000000     0.453870000000     0.0190049  
H463     H      0.722160000000     0.163940000000     0.461010000000     0.0488107  
H464     H      0.801180000000     0.113470000000     0.034610000000     0.0311319  
H465     H      0.747200000000     0.134000000000     0.043820000000     0.0347928  
H466     H      0.714890000000     0.132340000000     0.489450000000     0.04533    
H467     H      0.765120000000     0.092190000000     0.430420000000     0.0841297  
H468     H      0.727440000000     0.093710000000     0.446550000000     0.0911467  
H469     H      0.713680000000     0.992530000000     0.367520000000     0.0335194  
H470     H      0.718660000000     0.034240000000     0.407240000000     0.0362502  
H471     H      0.765170000000     0.456340000000     0.369410000000     0.0176465  
H472     H      0.804060000000     0.478060000000     0.406870000000     0.0472812  
H473     H      0.716010000000     0.030590000000     0.347050000000     0.0326613  
H474     H      0.751260000000     0.052530000000     0.386700000000     0.0344446  
H475     H      0.806450000000     0.515650000000     0.385240000000     0.0462998  
H476     H      0.800000000000     0.449920000000     0.326730000000     0.0923086  
H477     H      0.817460000000     0.487560000000     0.331970000000     0.086314   
H478     H      0.773210000000     0.483310000000     0.137430000000     0.0387856  
H479     H      0.812840000000     0.504590000000     0.099960000000     0.0375172  
H480     H      0.719590000000     0.522210000000     0.139430000000     0.0155227  
H481     H      0.725350000000     0.057680000000     0.095080000000     0.0483332  
H482     H      0.806970000000     0.499570000000     0.158290000000     0.0304923  
H483     H      0.811750000000     0.043710000000     0.119100000000     0.0355541  
H484     H      0.758680000000     0.077960000000     0.112200000000     0.0408373  
H485     H      0.708720000000     0.059240000000     0.179630000000     0.0879425  
H486     H      0.738390000000     0.085610000000     0.167820000000     0.0925347  
H487     H      0.476500000000     0.308630000000     0.371740000000     0.0319163  
H488     H      0.519880000000     0.307840000000     0.409120000000     0.0377881  
H489     H      0.947030000000     0.251270000000     0.375340000000     0.0164874  
H490     H      0.975610000000     0.214090000000     0.410490000000     0.0471802  
H491     H      0.512580000000     0.310210000000     0.349240000000     0.0319973  
H492     H      0.539730000000     0.276430000000     0.387440000000     0.0354127  
H493     H      0.011130000000     0.217720000000     0.386890000000     0.0480512  
H494     H      0.942280000000     0.214930000000     0.333310000000     0.0928297  
H495     H      0.981670000000     0.202870000000     0.335030000000     0.0849276  
H496     H      0.496460000000     0.317290000000     0.141280000000     0.0317875  
H497     H      0.459550000000     0.305410000000     0.099860000000     0.0349339  
H498     H      0.540620000000     0.271890000000     0.134940000000     0.0176004  
H499     H      0.024650000000     0.225900000000     0.100780000000     0.0458966  
H500     H      0.460680000000     0.306170000000     0.161350000000     0.0345974  
H501     H      0.945440000000     0.269920000000     0.119820000000     0.0332755  
H502     H      0.989240000000     0.220140000000     0.124330000000     0.0424318  
H503     H      0.558200000000     0.239020000000     0.175950000000     0.0917073  
H504     H      0.024690000000     0.214590000000     0.175680000000     0.085645   
H505     H      0.629340000000     0.012770000000     0.302610000000     0.0359286  
H506     H      0.664720000000     0.054600000000     0.280840000000     0.0367166  
H507     H      0.625610000000     0.461670000000     0.265480000000     0.0158219  
H508     H      0.665610000000     0.467270000000     0.225620000000     0.048538   
H509     H      0.607170000000     0.048200000000     0.290750000000     0.0316094  
H510     H      0.642150000000     0.056120000000     0.244410000000     0.0369653  
H511     H      0.645970000000     0.500830000000     0.207290000000     0.0416307  
H512     H      0.581000000000     0.449960000000     0.233620000000     0.0873583  
H513     H      0.593280000000     0.476090000000     0.203740000000     0.0923186  
H514     H      0.893200000000     0.466330000000     0.270630000000     0.0333615  
H515     H      0.857690000000     0.474490000000     0.226100000000     0.0372973  
H516     H      0.889870000000     0.518170000000     0.308780000000     0.0161839  
H517     H      0.854510000000     0.058780000000     0.285930000000     0.047922   
H518     H      0.916540000000     0.469980000000     0.235190000000     0.0351026  
H519     H      0.879820000000     0.008940000000     0.212740000000     0.0343016  
H520     H      0.878490000000     0.061840000000     0.250550000000     0.0451941  
H521     H      0.930780000000     0.053870000000     0.319830000000     0.0918905  
H522     H      0.930550000000     0.071140000000     0.282080000000     0.0869087  
H523     H      0.984120000000     0.395080000000     0.219690000000     0.0318879  
H524     H      0.039360000000     0.411350000000     0.230720000000     0.0340187  
H525     H      0.949870000000     0.395980000000     0.271420000000     0.0160563  
H526     H      0.481890000000     0.417020000000     0.315290000000     0.0473022  
H527     H      0.010700000000     0.361510000000     0.213650000000     0.0309614  
H528     H      0.542980000000     0.379430000000     0.259570000000     0.0387293  
H529     H      0.509400000000     0.383660000000     0.311920000000     0.0426932  
H530     H      0.931190000000     0.347880000000     0.295800000000     0.0928763  
H531     H      0.466380000000     0.342020000000     0.316200000000     0.0843005  
H532     H      0.041110000000     0.173380000000     0.285110000000     0.0352619  
H533     H      0.505040000000     0.128000000000     0.298330000000     0.037387   
H534     H      0.960000000000     0.147870000000     0.250210000000     0.0175151  
H535     H      0.976320000000     0.102770000000     0.215540000000     0.046497   
H536     H      0.550790000000     0.155160000000     0.247490000000     0.0354248  
H537     H      0.544290000000     0.113610000000     0.289770000000     0.0339866  
H538     H      0.513660000000     0.121860000000     0.207220000000     0.0458452  
H539     H      0.949190000000     0.181750000000     0.208530000000     0.0910588  
H540     H      0.486510000000     0.178140000000     0.191680000000     0.0830197  
H541     H      0.879110000000     0.308020000000     0.004270000000     0.0339646  
H542     H      0.841540000000     0.291110000000     0.545800000000     0.0363295  
H543     H      0.879690000000     0.266860000000     0.955790000000     0.0175361  
H544     H      0.837390000000     0.228990000000     0.964010000000     0.0502251  
H545     H      0.900130000000     0.295800000000     0.539720000000     0.0311357  
H546     H      0.861320000000     0.252560000000     0.549830000000     0.0370512  
H547     H      0.855940000000     0.212140000000     0.498540000000     0.0424058  
H548     H      0.921890000000     0.230680000000     0.945930000000     0.0894338  
H549     H      0.908200000000     0.203160000000     0.973940000000     0.0965657  
H550     H      0.627710000000     0.271820000000     0.962280000000     0.034324   
H551     H      0.590730000000     0.309640000000     0.987950000000     0.0494971  
H552     H      0.629130000000     0.215740000000     0.492150000000     0.0165301  
H553     H      0.588650000000     0.215980000000     0.532430000000     0.0491728  
H554     H      0.649200000000     0.304900000000     0.980300000000     0.028701   
H555     H      0.611780000000     0.306370000000     0.525190000000     0.0368551  
H556     H      0.608090000000     0.247340000000     0.554450000000     0.0425379  
H557     H      0.673000000000     0.198790000000     0.523160000000     0.0871579  
H558     H      0.659980000000     0.220280000000     0.556150000000     0.0937925  
H559     H      0.755930000000     0.381630000000     0.961930000000     0.0350955  
H560     H      0.798950000000     0.414040000000     0.985730000000     0.050503   
H561     H      0.703060000000     0.383820000000     0.995510000000     0.0257209  
H562     H      0.709890000000     0.426130000000     0.533620000000     0.0490944  
H563     H      0.787330000000     0.356110000000     0.976940000000     0.0325547  
H564     H      0.795020000000     0.392550000000     0.522890000000     0.0370891  
H565     H      0.739180000000     0.403960000000     0.555330000000     0.0422317  
H566     H      0.685530000000     0.340950000000     0.028360000000     0.0847602  
H567     H      0.710350000000     0.352540000000     0.559260000000     0.0935745  
H568     H      0.808700000000     0.145180000000     0.505950000000     0.0344364  
H569     H      0.775140000000     0.166620000000     0.548830000000     0.0379998  
H570     H      0.776920000000     0.144950000000     0.953870000000     0.0209304  
H571     H      0.722160000000     0.163940000000     0.961000000000     0.048703   
H572     H      0.801180000000     0.113470000000     0.534610000000     0.0314955  
H573     H      0.747200000000     0.134000000000     0.543820000000     0.0366609  
H574     H      0.714890000000     0.132340000000     0.989450000000     0.0470556  
H575     H      0.765120000000     0.092190000000     0.930420000000     0.0845351  
H576     H      0.727440000000     0.093710000000     0.946550000000     0.0919128  
H577     H      0.713680000000     0.992530000000     0.867520000000     0.0340338  
H578     H      0.718660000000     0.034240000000     0.907240000000     0.0369994  
H579     H      0.765170000000     0.456340000000     0.869410000000     0.0180907  
H580     H      0.804060000000     0.478060000000     0.906870000000     0.0483531  
H581     H      0.716010000000     0.030590000000     0.847050000000     0.0328533  
H582     H      0.751260000000     0.052530000000     0.886700000000     0.0346767  
H583     H      0.806450000000     0.515650000000     0.885240000000     0.0467751  
H584     H      0.800000000000     0.449920000000     0.826730000000     0.0924658  
H585     H      0.817460000000     0.487560000000     0.831970000000     0.0864575  
H586     H      0.773210000000     0.483310000000     0.637430000000     0.0388307  
H587     H      0.812840000000     0.504590000000     0.599960000000     0.0378907  
H588     H      0.719590000000     0.522210000000     0.639430000000     0.0156737  
H589     H      0.725350000000     0.057680000000     0.595080000000     0.0489424  
H590     H      0.806970000000     0.499570000000     0.658290000000     0.0305945  
H591     H      0.811750000000     0.043710000000     0.619100000000     0.0359151  
H592     H      0.758680000000     0.077960000000     0.612200000000     0.0411441  
H593     H      0.708720000000     0.059240000000     0.679630000000     0.0880061  
H594     H      0.738390000000     0.085610000000     0.667820000000     0.0925864  
H595     H      0.476500000000     0.308630000000     0.871740000000     0.032461   
H596     H      0.519880000000     0.307840000000     0.909120000000     0.0388514  
H597     H      0.947030000000     0.251270000000     0.875340000000     0.0168219  
H598     H      0.975610000000     0.214090000000     0.910490000000     0.048057   
H599     H      0.512580000000     0.310210000000     0.849240000000     0.0322336  
H600     H      0.539730000000     0.276430000000     0.887440000000     0.036023   
H601     H      0.011130000000     0.217720000000     0.886890000000     0.0486602  
H602     H      0.942280000000     0.214930000000     0.833310000000     0.0929589  
H603     H      0.981670000000     0.202870000000     0.835030000000     0.0850941  
H604     H      0.496460000000     0.317290000000     0.641280000000     0.0319893  
H605     H      0.459550000000     0.305410000000     0.599860000000     0.0352143  
H606     H      0.540620000000     0.271890000000     0.634950000000     0.0176901  
H607     H      0.024650000000     0.225900000000     0.600780000000     0.0461229  
H608     H      0.460680000000     0.306170000000     0.661350000000     0.0346775  
H609     H      0.945440000000     0.269920000000     0.619820000000     0.0333998  
H610     H      0.989240000000     0.220140000000     0.624330000000     0.042667   
H611     H      0.558200000000     0.239020000000     0.675950000000     0.0917398  
H612     H      0.024690000000     0.214590000000     0.675680000000     0.0856872  
H613     H      0.629340000000     0.012770000000     0.802610000000     0.0362441  
H614     H      0.664720000000     0.054600000000     0.780840000000     0.0368219  
H615     H      0.625610000000     0.461670000000     0.765480000000     0.0159463  
H616     H      0.665610000000     0.467270000000     0.725620000000     0.0486024  
H617     H      0.607170000000     0.048200000000     0.790750000000     0.0318449  
H618     H      0.642150000000     0.056120000000     0.744410000000     0.0370245  
H619     H      0.645970000000     0.500830000000     0.707290000000     0.0417573  
H620     H      0.581000000000     0.449960000000     0.733620000000     0.0874343  
H621     H      0.593280000000     0.476090000000     0.703740000000     0.0925147  
H622     H      0.893200000000     0.466330000000     0.770630000000     0.0334785  
H623     H      0.857690000000     0.474490000000     0.726100000000     0.0373672  
H624     H      0.889870000000     0.518170000000     0.808780000000     0.0164531  
H625     H      0.854510000000     0.058780000000     0.785930000000     0.0480269  
H626     H      0.916540000000     0.469980000000     0.735190000000     0.0351917  
H627     H      0.879820000000     0.008940000000     0.712750000000     0.0344519  
H628     H      0.878490000000     0.061840000000     0.750550000000     0.045249   
H629     H      0.930780000000     0.053870000000     0.819830000000     0.0923317  
H630     H      0.930550000000     0.071140000000     0.782080000000     0.0869866  
H631     H      0.984120000000     0.395080000000     0.719690000000     0.032012   
H632     H      0.039360000000     0.411350000000     0.730720000000     0.0341072  
H633     H      0.949870000000     0.395980000000     0.771420000000     0.0161392  
H634     H      0.481890000000     0.417020000000     0.815290000000     0.047697   
H635     H      0.010700000000     0.361510000000     0.713650000000     0.031044   
H636     H      0.542980000000     0.379430000000     0.759570000000     0.0388127  
H637     H      0.509400000000     0.383660000000     0.811920000000     0.0429697  
H638     H      0.931190000000     0.347880000000     0.795800000000     0.0929774  
H639     H      0.466380000000     0.342020000000     0.816200000000     0.0844931  
H640     H      0.041110000000     0.173380000000     0.785110000000     0.0353962  
H641     H      0.505040000000     0.128000000000     0.798330000000     0.0376394  
H642     H      0.960000000000     0.147870000000     0.750210000000     0.017557   
H643     H      0.976320000000     0.102770000000     0.715540000000     0.0466476  
H644     H      0.550790000000     0.155160000000     0.747490000000     0.0354788  
H645     H      0.544290000000     0.113610000000     0.789770000000     0.0342218  
H646     H      0.513660000000     0.121860000000     0.707220000000     0.0460156  
H647     H      0.949190000000     0.181750000000     0.708530000000     0.0911185  
H648     H      0.486510000000     0.178140000000     0.691680000000     0.0831148  
H649     H      0.879110000000     0.808020000000     0.504270000000     0.0365563  
H650     H      0.841540000000     0.791110000000     0.045800000000     0.0361829  
H651     H      0.879690000000     0.766860000000     0.455800000000     0.0166571  
H652     H      0.837390000000     0.728990000000     0.464010000000     0.0500154  
H653     H      0.900130000000     0.795800000000     0.039720000000     0.0308425  
H654     H      0.861320000000     0.752560000000     0.049830000000     0.0363279  
H655     H      0.855940000000     0.712140000000     0.998540000000     0.0453719  
H656     H      0.921890000000     0.730680000000     0.445930000000     0.0875225  
H657     H      0.908200000000     0.703160000000     0.473940000000     0.0933989  
H658     H      0.627710000000     0.771820000000     0.462280000000     0.0366954  
H659     H      0.590730000000     0.809640000000     0.487950000000     0.0371403  
H660     H      0.629130000000     0.715740000000     0.992160000000     0.0262934  
H661     H      0.588650000000     0.715990000000     0.032430000000     0.0474136  
H662     H      0.649200000000     0.804900000000     0.480300000000     0.0299079  
H663     H      0.611780000000     0.806370000000     0.025190000000     0.0403303  
H664     H      0.608090000000     0.747340000000     0.054450000000     0.0424114  
H665     H      0.673000000000     0.698790000000     0.023160000000     0.0848757  
H666     H      0.659980000000     0.720280000000     0.056140000000     0.0938082  
H667     H      0.755930000000     0.881630000000     0.461930000000     0.0373953  
H668     H      0.798950000000     0.914040000000     0.485730000000     0.03811    
H669     H      0.703060000000     0.883820000000     0.495510000000     0.0158148  
H670     H      0.709890000000     0.926130000000     0.033620000000     0.0473363  
H671     H      0.787330000000     0.856110000000     0.476940000000     0.0339374  
H672     H      0.795020000000     0.892560000000     0.022890000000     0.0406116  
H673     H      0.739180000000     0.903960000000     0.055330000000     0.0421471  
H674     H      0.685530000000     0.840950000000     0.528360000000     0.0868758  
H675     H      0.710350000000     0.852540000000     0.059260000000     0.0935621  
H676     H      0.808700000000     0.645180000000     0.005950000000     0.0325775  
H677     H      0.775140000000     0.666620000000     0.048830000000     0.0375915  
H678     H      0.776920000000     0.644950000000     0.453870000000     0.0190016  
H679     H      0.722160000000     0.663940000000     0.461010000000     0.0488151  
H680     H      0.801180000000     0.613470000000     0.034610000000     0.0311329  
H681     H      0.747200000000     0.634000000000     0.043820000000     0.034793   
H682     H      0.714890000000     0.632340000000     0.489450000000     0.0453328  
H683     H      0.765120000000     0.592200000000     0.430420000000     0.0841668  
H684     H      0.727440000000     0.593710000000     0.446550000000     0.0911557  
H685     H      0.713680000000     0.492530000000     0.367520000000     0.0333614  
H686     H      0.718660000000     0.534240000000     0.407240000000     0.0362816  
H687     H      0.765170000000     0.956340000000     0.369410000000     0.0176589  
H688     H      0.804060000000     0.978060000000     0.406870000000     0.0472558  
H689     H      0.716010000000     0.530590000000     0.347050000000     0.0326296  
H690     H      0.751260000000     0.552530000000     0.386700000000     0.034454   
H691     H      0.806450000000     0.015650000000     0.385240000000     0.0461543  
H692     H      0.800000000000     0.949920000000     0.326730000000     0.0923196  
H693     H      0.817460000000     0.987560000000     0.331970000000     0.0863767  
H694     H      0.773210000000     0.983310000000     0.137430000000     0.038973   
H695     H      0.812840000000     0.004600000000     0.099960000000     0.0374586  
H696     H      0.719590000000     0.022210000000     0.139430000000     0.015494   
H697     H      0.725350000000     0.557680000000     0.095080000000     0.0483421  
H698     H      0.806970000000     0.999570000000     0.158290000000     0.0306919  
H699     H      0.811750000000     0.543710000000     0.119100000000     0.0355854  
H700     H      0.758680000000     0.577960000000     0.112200000000     0.0408362  
H701     H      0.708720000000     0.559240000000     0.179630000000     0.0879498  
H702     H      0.738390000000     0.585610000000     0.167820000000     0.0925334  
H703     H      0.476500000000     0.808630000000     0.371740000000     0.0319205  
H704     H      0.519880000000     0.807840000000     0.409120000000     0.037793   
H705     H      0.947030000000     0.751270000000     0.375340000000     0.0164883  
H706     H      0.975610000000     0.714090000000     0.410490000000     0.0471813  
H707     H      0.512580000000     0.810210000000     0.349240000000     0.0320014  
H708     H      0.539730000000     0.776430000000     0.387440000000     0.0354137  
H709     H      0.011130000000     0.717720000000     0.386890000000     0.0480521  
H710     H      0.942280000000     0.714930000000     0.333310000000     0.0928289  
H711     H      0.981670000000     0.702870000000     0.335030000000     0.0849265  
H712     H      0.496460000000     0.817290000000     0.141280000000     0.0317938  
H713     H      0.459550000000     0.805410000000     0.099860000000     0.0349385  
H714     H      0.540620000000     0.771890000000     0.134940000000     0.0176026  
H715     H      0.024650000000     0.725900000000     0.100780000000     0.0458972  
H716     H      0.460680000000     0.806170000000     0.161350000000     0.0346016  
H717     H      0.945440000000     0.769920000000     0.119820000000     0.0332758  
H718     H      0.989240000000     0.720140000000     0.124330000000     0.0424317  
H719     H      0.558200000000     0.739020000000     0.175950000000     0.0917062  
H720     H      0.024690000000     0.714590000000     0.175680000000     0.0856421  
H721     H      0.629340000000     0.512770000000     0.302610000000     0.0359668  
H722     H      0.664720000000     0.554600000000     0.280840000000     0.0367172  
H723     H      0.625610000000     0.961670000000     0.265480000000     0.0158435  
H724     H      0.665610000000     0.967270000000     0.225620000000     0.0485066  
H725     H      0.607170000000     0.548200000000     0.290750000000     0.031614   
H726     H      0.642150000000     0.556120000000     0.244410000000     0.0369697  
H727     H      0.645970000000     0.000830000000     0.207290000000     0.0414709  
H728     H      0.581000000000     0.949960000000     0.233620000000     0.087388   
H729     H      0.593280000000     0.976090000000     0.203740000000     0.0923783  
H730     H      0.893200000000     0.966330000000     0.270630000000     0.0333842  
H731     H      0.857690000000     0.974490000000     0.226100000000     0.0372629  
H732     H      0.889870000000     0.018170000000     0.308780000000     0.0161461  
H733     H      0.854510000000     0.558780000000     0.285930000000     0.0479236  
H734     H      0.916540000000     0.969980000000     0.235190000000     0.0351383  
H735     H      0.879820000000     0.508940000000     0.212740000000     0.0344567  
H736     H      0.878490000000     0.561840000000     0.250550000000     0.0451971  
H737     H      0.930780000000     0.553870000000     0.319830000000     0.0919039  
H738     H      0.930550000000     0.571140000000     0.282080000000     0.0869106  
H739     H      0.984120000000     0.895080000000     0.219690000000     0.0318998  
H740     H      0.039360000000     0.911350000000     0.230720000000     0.0340301  
H741     H      0.949870000000     0.895980000000     0.271420000000     0.0160656  
H742     H      0.481890000000     0.917020000000     0.315290000000     0.0473203  
H743     H      0.010700000000     0.861510000000     0.213650000000     0.0309675  
H744     H      0.542980000000     0.879430000000     0.259570000000     0.0387346  
H745     H      0.509400000000     0.883660000000     0.311920000000     0.0427019  
H746     H      0.931190000000     0.847880000000     0.295800000000     0.0928795  
H747     H      0.466380000000     0.842020000000     0.316200000000     0.0843039  
H748     H      0.041110000000     0.673380000000     0.285110000000     0.0352656  
H749     H      0.505040000000     0.628000000000     0.298330000000     0.0373901  
H750     H      0.960000000000     0.647870000000     0.250210000000     0.017519   
H751     H      0.976320000000     0.602770000000     0.215540000000     0.0465024  
H752     H      0.550790000000     0.655160000000     0.247490000000     0.0354254  
H753     H      0.544290000000     0.613610000000     0.289770000000     0.0339892  
H754     H      0.513660000000     0.621870000000     0.207220000000     0.0458452  
H755     H      0.949190000000     0.681750000000     0.208530000000     0.0910612  
H756     H      0.486510000000     0.678140000000     0.191680000000     0.0830182  
H757     H      0.879110000000     0.808020000000     0.004270000000     0.0339694  
H758     H      0.841540000000     0.791110000000     0.545800000000     0.0363314  
H759     H      0.879690000000     0.766860000000     0.955790000000     0.017537   
H760     H      0.837390000000     0.728990000000     0.964010000000     0.0502247  
H761     H      0.900130000000     0.795800000000     0.539720000000     0.0311391  
H762     H      0.861320000000     0.752560000000     0.549830000000     0.0370511  
H763     H      0.855940000000     0.712140000000     0.498540000000     0.0424059  
H764     H      0.921890000000     0.730680000000     0.945930000000     0.089434   
H765     H      0.908200000000     0.703160000000     0.973940000000     0.0965669  
H766     H      0.627710000000     0.771820000000     0.962280000000     0.0343248  
H767     H      0.590730000000     0.809640000000     0.987950000000     0.0495021  
H768     H      0.629130000000     0.715740000000     0.492150000000     0.0165281  
H769     H      0.588650000000     0.715990000000     0.532430000000     0.0491994  
H770     H      0.649200000000     0.804900000000     0.980300000000     0.0287036  
H771     H      0.611780000000     0.806370000000     0.525190000000     0.03686    
H772     H      0.608090000000     0.747340000000     0.554450000000     0.0425487  
H773     H      0.673000000000     0.698790000000     0.523160000000     0.0871588  
H774     H      0.659980000000     0.720280000000     0.556150000000     0.0937929  
H775     H      0.755930000000     0.881630000000     0.961930000000     0.0351     
H776     H      0.798950000000     0.914040000000     0.985730000000     0.0505175  
H777     H      0.703060000000     0.883820000000     0.995510000000     0.0257285  
H778     H      0.709890000000     0.926130000000     0.533620000000     0.049116   
H779     H      0.787330000000     0.856110000000     0.976940000000     0.0325563  
H780     H      0.795020000000     0.892560000000     0.522890000000     0.0371071  
H781     H      0.739180000000     0.903960000000     0.555330000000     0.0422444  
H782     H      0.685530000000     0.840950000000     0.028360000000     0.0847631  
H783     H      0.710350000000     0.852540000000     0.559260000000     0.093578   
H784     H      0.808700000000     0.645180000000     0.505950000000     0.0344377  
H785     H      0.775140000000     0.666620000000     0.548830000000     0.0380025  
H786     H      0.776920000000     0.644950000000     0.953870000000     0.0209268  
H787     H      0.722160000000     0.663940000000     0.961000000000     0.0487079  
H788     H      0.801180000000     0.613470000000     0.534610000000     0.0314967  
H789     H      0.747200000000     0.634000000000     0.543820000000     0.0366607  
H790     H      0.714890000000     0.632340000000     0.989450000000     0.0470586  
H791     H      0.765120000000     0.592200000000     0.930420000000     0.0845722  
H792     H      0.727440000000     0.593710000000     0.946550000000     0.0919219  
H793     H      0.713680000000     0.492530000000     0.867520000000     0.0338769  
H794     H      0.718660000000     0.534240000000     0.907240000000     0.0370308  
H795     H      0.765170000000     0.956340000000     0.869410000000     0.018103   
H796     H      0.804060000000     0.978060000000     0.906870000000     0.0483279  
H797     H      0.716010000000     0.530590000000     0.847050000000     0.0328218  
H798     H      0.751260000000     0.552530000000     0.886700000000     0.034686   
H799     H      0.806450000000     0.015650000000     0.885240000000     0.0466306  
H800     H      0.800000000000     0.949920000000     0.826730000000     0.0924768  
H801     H      0.817460000000     0.987560000000     0.831970000000     0.0865198  
H802     H      0.773210000000     0.983310000000     0.637430000000     0.0390177  
H803     H      0.812840000000     0.004600000000     0.599960000000     0.0378322  
H804     H      0.719590000000     0.022210000000     0.639430000000     0.0156451  
H805     H      0.725350000000     0.557680000000     0.595080000000     0.0489513  
H806     H      0.806970000000     0.999570000000     0.658290000000     0.0307935  
H807     H      0.811750000000     0.543710000000     0.619100000000     0.0359463  
H808     H      0.758680000000     0.577960000000     0.612200000000     0.0411431  
H809     H      0.708720000000     0.559240000000     0.679630000000     0.0880134  
H810     H      0.738390000000     0.585610000000     0.667820000000     0.0925851  
H811     H      0.476500000000     0.808630000000     0.871740000000     0.0324652  
H812     H      0.519880000000     0.807840000000     0.909120000000     0.0388563  
H813     H      0.947030000000     0.751270000000     0.875340000000     0.0168227  
H814     H      0.975610000000     0.714090000000     0.910490000000     0.0480581  
H815     H      0.512580000000     0.810210000000     0.849240000000     0.0322376  
H816     H      0.539730000000     0.776430000000     0.887440000000     0.036024   
H817     H      0.011130000000     0.717720000000     0.886890000000     0.0486611  
H818     H      0.942280000000     0.714930000000     0.833310000000     0.092958   
H819     H      0.981670000000     0.702870000000     0.835030000000     0.085093   
H820     H      0.496460000000     0.817290000000     0.641280000000     0.0319956  
H821     H      0.459550000000     0.805410000000     0.599860000000     0.0352188  
H822     H      0.540620000000     0.771890000000     0.634950000000     0.0176922  
H823     H      0.024650000000     0.725900000000     0.600780000000     0.0461236  
H824     H      0.460680000000     0.806170000000     0.661350000000     0.0346818  
H825     H      0.945440000000     0.769920000000     0.619820000000     0.0334001  
H826     H      0.989240000000     0.720140000000     0.624330000000     0.0426669  
H827     H      0.558200000000     0.739020000000     0.675950000000     0.0917386  
H828     H      0.024690000000     0.714590000000     0.675680000000     0.0856844  
H829     H      0.629340000000     0.512770000000     0.802610000000     0.0362821  
H830     H      0.664720000000     0.554600000000     0.780840000000     0.0368225  
H831     H      0.625610000000     0.961670000000     0.765480000000     0.0159677  
H832     H      0.665610000000     0.967270000000     0.725620000000     0.0485711  
H833     H      0.607170000000     0.548200000000     0.790750000000     0.0318494  
H834     H      0.642150000000     0.556120000000     0.744410000000     0.0370289  
H835     H      0.645970000000     0.000830000000     0.707290000000     0.041598   
H836     H      0.581000000000     0.949960000000     0.733620000000     0.0874638  
H837     H      0.593280000000     0.976090000000     0.703740000000     0.0925742  
H838     H      0.893200000000     0.966330000000     0.770630000000     0.033501   
H839     H      0.857690000000     0.974490000000     0.726100000000     0.0373329  
H840     H      0.889870000000     0.018170000000     0.808780000000     0.0164155  
H841     H      0.854510000000     0.558780000000     0.785930000000     0.0480284  
H842     H      0.916540000000     0.969980000000     0.735190000000     0.0352273  
H843     H      0.879820000000     0.508940000000     0.712750000000     0.0346066  
H844     H      0.878490000000     0.561840000000     0.750550000000     0.0452521  
H845     H      0.930780000000     0.553870000000     0.819830000000     0.092345   
H846     H      0.930550000000     0.571140000000     0.782080000000     0.0869885  
H847     H      0.984120000000     0.895080000000     0.719690000000     0.0320239  
H848     H      0.039360000000     0.911350000000     0.730720000000     0.0341186  
H849     H      0.949870000000     0.895980000000     0.771420000000     0.0161485  
H850     H      0.481890000000     0.917020000000     0.815290000000     0.047715   
H851     H      0.010700000000     0.861510000000     0.713650000000     0.0310501  
H852     H      0.542980000000     0.879430000000     0.759570000000     0.038818   
H853     H      0.509400000000     0.883660000000     0.811920000000     0.0429784  
H854     H      0.931190000000     0.847880000000     0.795800000000     0.0929806  
H855     H      0.466380000000     0.842020000000     0.816200000000     0.0844964  
H856     H      0.041110000000     0.673380000000     0.785110000000     0.0353999  
H857     H      0.505040000000     0.628000000000     0.798330000000     0.0376425  
H858     H      0.960000000000     0.647870000000     0.750210000000     0.0175609  
H859     H      0.976320000000     0.602770000000     0.715540000000     0.0466529  
H860     H      0.550790000000     0.655160000000     0.747490000000     0.0354794  
H861     H      0.544290000000     0.613610000000     0.789770000000     0.0342244  
H862     H      0.513660000000     0.621870000000     0.707220000000     0.0460156  
H863     H      0.949190000000     0.681750000000     0.708530000000     0.0911209  
H864     H      0.486510000000     0.678140000000     0.691680000000     0.0831133  
N1       N      0.402390000000     0.262740000000     0.500340000000    -0.193058   
N2       N      0.336350000000     0.258230000000     0.006540000000    -0.179586   
N3       N      0.402090000000     0.221550000000     0.457950000000    -0.199445   
N4       N      0.152330000000     0.259240000000     0.004390000000    -0.196177   
N5       N      0.086550000000     0.264010000000     0.512410000000    -0.176627   
N6       N      0.153410000000     0.208430000000     0.035150000000    -0.198839   
N7       N      0.244360000000     0.356560000000     0.504340000000    -0.19123    
N8       N      0.256260000000     0.423350000000     0.512400000000    -0.175759   
N9       N      0.197560000000     0.360130000000     0.039270000000    -0.198256   
N10      N      0.276200000000     0.109610000000     0.490120000000    -0.193356   
N11      N      0.246860000000     0.167880000000     0.505950000000    -0.176617   
N12      N      0.247170000000     0.107150000000     0.439330000000    -0.200772   
N13      N      0.257250000000     0.500030000000     0.344150000000    -0.192852   
N14      N      0.263400000000     0.509070000000     0.410030000000    -0.176642   
N15      N      0.306290000000     0.467920000000     0.343040000000    -0.199545   
N16      N      0.264440000000     0.527820000000     0.160970000000    -0.191915   
N17      N      0.269770000000     0.031940000000     0.094080000000    -0.176488   
N18      N      0.221860000000     0.068260000000     0.160450000000    -0.19949    
N19      N      0.486790000000     0.265130000000     0.347610000000    -0.193273   
N20      N      0.499720000000     0.260000000000     0.412740000000    -0.177493   
N21      N      0.462030000000     0.211210000000     0.347890000000    -0.199452   
N22      N      0.498850000000     0.271480000000     0.163180000000    -0.193101   
N23      N      0.989720000000     0.263540000000     0.097690000000    -0.179303   
N24      N      0.540020000000     0.228960000000     0.162210000000    -0.198962   
N25      N      0.102580000000     0.506700000000     0.260410000000    -0.192159   
N26      N      0.168310000000     0.012770000000     0.250380000000    -0.177091   
N27      N      0.100300000000     0.461120000000     0.222560000000    -0.200183   
N28      N      0.418030000000     0.510540000000     0.267590000000    -0.192322   
N29      N      0.353160000000     0.017960000000     0.254260000000    -0.177304   
N30      N      0.417080000000     0.060210000000     0.300040000000    -0.198908   
N31      N      0.981990000000     0.359770000000     0.256050000000    -0.195786   
N32      N      0.011660000000     0.416780000000     0.273660000000    -0.177129   
N33      N      0.951100000000     0.358980000000     0.305850000000    -0.199674   
N34      N      0.003820000000     0.173150000000     0.250110000000    -0.190497   
N35      N      0.509470000000     0.103950000000     0.254080000000    -0.179053   
N36      N      0.468470000000     0.166460000000     0.204260000000    -0.198531   
N37      N      0.402390000000     0.262740000000     0.000330000000    -0.197736   
N38      N      0.336350000000     0.258230000000     0.506540000000    -0.176708   
N39      N      0.402090000000     0.221550000000     0.957950000000    -0.200135   
N40      N      0.152330000000     0.259240000000     0.504390000000    -0.193007   
N41      N      0.086550000000     0.264010000000     0.012400000000    -0.175158   
N42      N      0.153410000000     0.208430000000     0.535150000000    -0.199697   
N43      N      0.244360000000     0.356560000000     0.004340000000    -0.194535   
N44      N      0.256260000000     0.423350000000     0.012400000000    -0.174087   
N45      N      0.197560000000     0.360130000000     0.539270000000    -0.199222   
N46      N      0.276200000000     0.109610000000     0.990120000000    -0.187694   
N47      N      0.246860000000     0.167880000000     0.005950000000    -0.180155   
N48      N      0.247170000000     0.107150000000     0.939330000000    -0.20071    
N49      N      0.257250000000     0.500030000000     0.844150000000    -0.192854   
N50      N      0.263400000000     0.509070000000     0.910030000000    -0.175779   
N51      N      0.306290000000     0.467920000000     0.843040000000    -0.199402   
N52      N      0.264440000000     0.527820000000     0.660970000000    -0.191907   
N53      N      0.269770000000     0.031940000000     0.594080000000    -0.176641   
N54      N      0.221860000000     0.068260000000     0.660450000000    -0.199409   
N55      N      0.486790000000     0.265130000000     0.847610000000    -0.193249   
N56      N      0.499720000000     0.260000000000     0.912740000000    -0.176709   
N57      N      0.462030000000     0.211210000000     0.847890000000    -0.199334   
N58      N      0.498850000000     0.271480000000     0.663180000000    -0.193089   
N59      N      0.989720000000     0.263540000000     0.597690000000    -0.17938    
N60      N      0.540020000000     0.228960000000     0.662210000000    -0.198913   
N61      N      0.102580000000     0.506700000000     0.760410000000    -0.192102   
N62      N      0.168310000000     0.012770000000     0.750380000000    -0.177074   
N63      N      0.100300000000     0.461120000000     0.722560000000    -0.20017    
N64      N      0.418030000000     0.510540000000     0.767590000000    -0.192277   
N65      N      0.353160000000     0.017960000000     0.754260000000    -0.177285   
N66      N      0.417080000000     0.060210000000     0.800040000000    -0.198868   
N67      N      0.981990000000     0.359770000000     0.756050000000    -0.195776   
N68      N      0.011660000000     0.416780000000     0.773660000000    -0.177081   
N69      N      0.951100000000     0.358980000000     0.805860000000    -0.199526   
N70      N      0.003820000000     0.173150000000     0.750110000000    -0.190519   
N71      N      0.509470000000     0.103950000000     0.754080000000    -0.179002   
N72      N      0.468470000000     0.166460000000     0.704260000000    -0.19848    
N73      N      0.402390000000     0.762740000000     0.500340000000    -0.193058   
N74      N      0.336350000000     0.758230000000     0.006540000000    -0.179586   
N75      N      0.402090000000     0.721550000000     0.457950000000    -0.199445   
N76      N      0.152330000000     0.759240000000     0.004390000000    -0.196179   
N77      N      0.086550000000     0.764010000000     0.512410000000    -0.17662    
N78      N      0.153410000000     0.708430000000     0.035150000000    -0.19884    
N79      N      0.244360000000     0.856560000000     0.504340000000    -0.191231   
N80      N      0.256260000000     0.923350000000     0.512400000000    -0.175746   
N81      N      0.197560000000     0.860130000000     0.039270000000    -0.198253   
N82      N      0.276200000000     0.609610000000     0.490120000000    -0.19336    
N83      N      0.246860000000     0.667890000000     0.505950000000    -0.176705   
N84      N      0.247170000000     0.607150000000     0.439330000000    -0.200812   
N85      N      0.257250000000     0.000030000000     0.344150000000    -0.192872   
N86      N      0.263400000000     0.009070000000     0.410030000000    -0.176747   
N87      N      0.306290000000     0.967920000000     0.343040000000    -0.199541   
N88      N      0.264440000000     0.027820000000     0.160970000000    -0.191853   
N89      N      0.269770000000     0.531940000000     0.094080000000    -0.176469   
N90      N      0.221860000000     0.568260000000     0.160450000000    -0.199491   
N91      N      0.486790000000     0.765130000000     0.347610000000    -0.193269   
N92      N      0.499720000000     0.760000000000     0.412740000000    -0.177493   
N93      N      0.462030000000     0.711210000000     0.347890000000    -0.199451   
N94      N      0.498850000000     0.771480000000     0.163180000000    -0.193096   
N95      N      0.989720000000     0.763540000000     0.097690000000    -0.179303   
N96      N      0.540020000000     0.728960000000     0.162210000000    -0.198962   
N97      N      0.102580000000     0.006700000000     0.260410000000    -0.192222   
N98      N      0.168310000000     0.512770000000     0.250380000000    -0.177027   
N99      N      0.100300000000     0.961120000000     0.222560000000    -0.200184   
N100     N      0.418030000000     0.010540000000     0.267590000000    -0.192382   
N101     N      0.353160000000     0.517960000000     0.254260000000    -0.177238   
N102     N      0.417080000000     0.560210000000     0.300040000000    -0.198909   
N103     N      0.981990000000     0.859770000000     0.256050000000    -0.195781   
N104     N      0.011660000000     0.916780000000     0.273660000000    -0.177112   
N105     N      0.951100000000     0.858980000000     0.305850000000    -0.199671   
N106     N      0.003820000000     0.673150000000     0.250110000000    -0.190502   
N107     N      0.509470000000     0.603950000000     0.254080000000    -0.179047   
N108     N      0.468470000000     0.666460000000     0.204260000000    -0.198529   
N109     N      0.402390000000     0.762740000000     0.000330000000    -0.197735   
N110     N      0.336350000000     0.758230000000     0.506540000000    -0.176708   
N111     N      0.402090000000     0.721550000000     0.957950000000    -0.200135   
N112     N      0.152330000000     0.759240000000     0.504390000000    -0.193009   
N113     N      0.086550000000     0.764010000000     0.012400000000    -0.175152   
N114     N      0.153410000000     0.708430000000     0.535150000000    -0.199698   
N115     N      0.244360000000     0.856560000000     0.004340000000    -0.194536   
N116     N      0.256260000000     0.923350000000     0.012400000000    -0.174073   
N117     N      0.197560000000     0.860130000000     0.539270000000    -0.199219   
N118     N      0.276200000000     0.609610000000     0.990120000000    -0.187699   
N119     N      0.246860000000     0.667890000000     0.005950000000    -0.180239   
N120     N      0.247170000000     0.607150000000     0.939330000000    -0.20075    
N121     N      0.257250000000     0.000030000000     0.844150000000    -0.192873   
N122     N      0.263400000000     0.009070000000     0.910030000000    -0.175883   
N123     N      0.306290000000     0.967920000000     0.843040000000    -0.199398   
N124     N      0.264440000000     0.027820000000     0.660970000000    -0.191846   
N125     N      0.269770000000     0.531940000000     0.594080000000    -0.176623   
N126     N      0.221860000000     0.568260000000     0.660450000000    -0.19941    
N127     N      0.486790000000     0.765130000000     0.847610000000    -0.193245   
N128     N      0.499720000000     0.760000000000     0.912740000000    -0.176709   
N129     N      0.462030000000     0.711210000000     0.847890000000    -0.199333   
N130     N      0.498850000000     0.771480000000     0.663180000000    -0.193085   
N131     N      0.989720000000     0.763540000000     0.597690000000    -0.17938    
N132     N      0.540020000000     0.728960000000     0.662210000000    -0.198913   
N133     N      0.102580000000     0.006700000000     0.760410000000    -0.192165   
N134     N      0.168310000000     0.512770000000     0.750380000000    -0.17701    
N135     N      0.100300000000     0.961120000000     0.722560000000    -0.20017    
N136     N      0.418030000000     0.010540000000     0.767590000000    -0.192337   
N137     N      0.353160000000     0.517960000000     0.754260000000    -0.177219   
N138     N      0.417080000000     0.560210000000     0.800040000000    -0.19887    
N139     N      0.981990000000     0.859770000000     0.756050000000    -0.195771   
N140     N      0.011660000000     0.916780000000     0.773660000000    -0.177065   
N141     N      0.951100000000     0.858980000000     0.805860000000    -0.199524   
N142     N      0.003820000000     0.673150000000     0.750110000000    -0.190524   
N143     N      0.509470000000     0.603950000000     0.754080000000    -0.178997   
N144     N      0.468470000000     0.666460000000     0.704260000000    -0.198478   
N145     N      0.902390000000     0.262740000000     0.500340000000    -0.193031   
N146     N      0.836350000000     0.258230000000     0.006540000000    -0.179592   
N147     N      0.902090000000     0.221550000000     0.457950000000    -0.199454   
N148     N      0.652330000000     0.259240000000     0.004390000000    -0.196194   
N149     N      0.586550000000     0.264010000000     0.512410000000    -0.176861   
N150     N      0.653410000000     0.208430000000     0.035150000000    -0.198882   
N151     N      0.744360000000     0.356560000000     0.504340000000    -0.191229   
N152     N      0.756260000000     0.423350000000     0.512400000000    -0.175775   
N153     N      0.697560000000     0.360130000000     0.039270000000    -0.19829    
N154     N      0.776200000000     0.109610000000     0.490120000000    -0.193371   
N155     N      0.746860000000     0.167880000000     0.505950000000    -0.176626   
N156     N      0.747170000000     0.107150000000     0.439330000000    -0.200727   
N157     N      0.757250000000     0.500030000000     0.344150000000    -0.192851   
N158     N      0.763400000000     0.509070000000     0.410030000000    -0.176653   
N159     N      0.806290000000     0.467920000000     0.343040000000    -0.199565   
N160     N      0.764440000000     0.527820000000     0.160970000000    -0.191912   
N161     N      0.769770000000     0.031940000000     0.094080000000    -0.176564   
N162     N      0.721860000000     0.068260000000     0.160450000000    -0.199506   
N163     N      0.986790000000     0.265130000000     0.347610000000    -0.192347   
N164     N      0.999710000000     0.260000000000     0.412740000000    -0.178884   
N165     N      0.962040000000     0.211210000000     0.347890000000    -0.199581   
N166     N      0.998850000000     0.271480000000     0.163180000000    -0.193831   
N167     N      0.489720000000     0.263540000000     0.097690000000    -0.177598   
N168     N      0.040020000000     0.228960000000     0.162210000000    -0.198934   
N169     N      0.602580000000     0.506700000000     0.260410000000    -0.192139   
N170     N      0.668310000000     0.012770000000     0.250380000000    -0.177094   
N171     N      0.600310000000     0.461120000000     0.222560000000    -0.200142   
N172     N      0.918030000000     0.510540000000     0.267590000000    -0.192507   
N173     N      0.853160000000     0.017960000000     0.254260000000    -0.177314   
N174     N      0.917080000000     0.060210000000     0.300040000000    -0.198842   
N175     N      0.481990000000     0.359770000000     0.256050000000    -0.194315   
N176     N      0.511660000000     0.416780000000     0.273660000000    -0.179134   
N177     N      0.451100000000     0.358980000000     0.305850000000    -0.199479   
N178     N      0.503820000000     0.173150000000     0.250110000000    -0.19373    
N179     N      0.009470000000     0.103950000000     0.254080000000    -0.177351   
N180     N      0.968470000000     0.166460000000     0.204260000000    -0.198477   
N181     N      0.902390000000     0.262740000000     0.000330000000    -0.19771    
N182     N      0.836350000000     0.258230000000     0.506540000000    -0.176713   
N183     N      0.902090000000     0.221550000000     0.957950000000    -0.200144   
N184     N      0.652330000000     0.259240000000     0.504390000000    -0.193011   
N185     N      0.586550000000     0.264010000000     0.012400000000    -0.175387   
N186     N      0.653410000000     0.208430000000     0.535150000000    -0.199744   
N187     N      0.744360000000     0.356560000000     0.004340000000    -0.194539   
N188     N      0.756260000000     0.423350000000     0.012400000000    -0.174101   
N189     N      0.697560000000     0.360130000000     0.539270000000    -0.199258   
N190     N      0.776200000000     0.109610000000     0.990120000000    -0.1877     
N191     N      0.746860000000     0.167880000000     0.005950000000    -0.18017    
N192     N      0.747170000000     0.107150000000     0.939330000000    -0.200665   
N193     N      0.757250000000     0.500030000000     0.844150000000    -0.192853   
N194     N      0.763400000000     0.509070000000     0.910030000000    -0.175788   
N195     N      0.806290000000     0.467920000000     0.843040000000    -0.199422   
N196     N      0.764440000000     0.527820000000     0.660970000000    -0.191905   
N197     N      0.769770000000     0.031940000000     0.594080000000    -0.176718   
N198     N      0.721860000000     0.068260000000     0.660450000000    -0.199425   
N199     N      0.986790000000     0.265130000000     0.847610000000    -0.192331   
N200     N      0.999710000000     0.260000000000     0.912740000000    -0.178089   
N201     N      0.962040000000     0.211210000000     0.847890000000    -0.199462   
N202     N      0.998850000000     0.271480000000     0.663180000000    -0.193817   
N203     N      0.489720000000     0.263540000000     0.597690000000    -0.177683   
N204     N      0.040020000000     0.228960000000     0.662210000000    -0.198886   
N205     N      0.602580000000     0.506700000000     0.760410000000    -0.192081   
N206     N      0.668310000000     0.012770000000     0.750380000000    -0.177077   
N207     N      0.600310000000     0.461120000000     0.722560000000    -0.200128   
N208     N      0.918030000000     0.510540000000     0.767590000000    -0.19246    
N209     N      0.853160000000     0.017960000000     0.754260000000    -0.177294   
N210     N      0.917080000000     0.060210000000     0.800040000000    -0.198803   
N211     N      0.481990000000     0.359770000000     0.756050000000    -0.194314   
N212     N      0.511660000000     0.416780000000     0.773660000000    -0.179071   
N213     N      0.451100000000     0.358980000000     0.805860000000    -0.199332   
N214     N      0.503820000000     0.173150000000     0.750110000000    -0.19373    
N215     N      0.009470000000     0.103950000000     0.754080000000    -0.177312   
N216     N      0.968470000000     0.166460000000     0.704260000000    -0.198426   
N217     N      0.902390000000     0.762740000000     0.500340000000    -0.193031   
N218     N      0.836350000000     0.758230000000     0.006540000000    -0.179592   
N219     N      0.902090000000     0.721550000000     0.457950000000    -0.199455   
N220     N      0.652330000000     0.759240000000     0.004390000000    -0.196195   
N221     N      0.586550000000     0.764010000000     0.512410000000    -0.176854   
N222     N      0.653410000000     0.708430000000     0.035150000000    -0.198883   
N223     N      0.744360000000     0.856560000000     0.504340000000    -0.19123    
N224     N      0.756260000000     0.923350000000     0.512400000000    -0.175762   
N225     N      0.697560000000     0.860130000000     0.039270000000    -0.198287   
N226     N      0.776200000000     0.609610000000     0.490120000000    -0.193375   
N227     N      0.746860000000     0.667890000000     0.505950000000    -0.176713   
N228     N      0.747170000000     0.607150000000     0.439330000000    -0.200767   
N229     N      0.757250000000     0.000030000000     0.344150000000    -0.19287    
N230     N      0.763400000000     0.009070000000     0.410030000000    -0.176757   
N231     N      0.806290000000     0.967920000000     0.343040000000    -0.199561   
N232     N      0.764440000000     0.027820000000     0.160970000000    -0.191851   
N233     N      0.769770000000     0.531940000000     0.094080000000    -0.176546   
N234     N      0.721860000000     0.568260000000     0.160450000000    -0.199508   
N235     N      0.986790000000     0.765130000000     0.347610000000    -0.192343   
N236     N      0.999710000000     0.760000000000     0.412740000000    -0.178884   
N237     N      0.962040000000     0.711210000000     0.347890000000    -0.199581   
N238     N      0.998850000000     0.771480000000     0.163180000000    -0.193827   
N239     N      0.489720000000     0.763540000000     0.097690000000    -0.177598   
N240     N      0.040020000000     0.728960000000     0.162210000000    -0.198934   
N241     N      0.602580000000     0.006700000000     0.260410000000    -0.192202   
N242     N      0.668310000000     0.512770000000     0.250380000000    -0.17703    
N243     N      0.600310000000     0.961120000000     0.222560000000    -0.200142   
N244     N      0.918030000000     0.010540000000     0.267590000000    -0.192566   
N245     N      0.853160000000     0.517960000000     0.254260000000    -0.177248   
N246     N      0.917080000000     0.560210000000     0.300040000000    -0.198843   
N247     N      0.481990000000     0.859770000000     0.256050000000    -0.194309   
N248     N      0.511660000000     0.916780000000     0.273660000000    -0.179117   
N249     N      0.451100000000     0.858980000000     0.305850000000    -0.199476   
N250     N      0.503820000000     0.673150000000     0.250110000000    -0.193736   
N251     N      0.009470000000     0.603950000000     0.254080000000    -0.177345   
N252     N      0.968470000000     0.666460000000     0.204260000000    -0.198475   
N253     N      0.902390000000     0.762740000000     0.000330000000    -0.197709   
N254     N      0.836350000000     0.758230000000     0.506540000000    -0.176713   
N255     N      0.902090000000     0.721550000000     0.957950000000    -0.200145   
N256     N      0.652330000000     0.759240000000     0.504390000000    -0.193013   
N257     N      0.586550000000     0.764010000000     0.012400000000    -0.175381   
N258     N      0.653410000000     0.708430000000     0.535150000000    -0.199745   
N259     N      0.744360000000     0.856560000000     0.004340000000    -0.194539   
N260     N      0.756260000000     0.923350000000     0.012400000000    -0.174087   
N261     N      0.697560000000     0.860130000000     0.539270000000    -0.199255   
N262     N      0.776200000000     0.609610000000     0.990120000000    -0.187705   
N263     N      0.746860000000     0.667890000000     0.005950000000    -0.180254   
N264     N      0.747170000000     0.607150000000     0.939330000000    -0.200705   
N265     N      0.757250000000     0.000030000000     0.844150000000    -0.192872   
N266     N      0.763400000000     0.009070000000     0.910030000000    -0.175892   
N267     N      0.806290000000     0.967920000000     0.843040000000    -0.199418   
N268     N      0.764440000000     0.027820000000     0.660970000000    -0.191843   
N269     N      0.769770000000     0.531940000000     0.594080000000    -0.1767     
N270     N      0.721860000000     0.568260000000     0.660450000000    -0.199426   
N271     N      0.986790000000     0.765130000000     0.847610000000    -0.192327   
N272     N      0.999710000000     0.760000000000     0.912740000000    -0.178089   
N273     N      0.962040000000     0.711210000000     0.847890000000    -0.199462   
N274     N      0.998850000000     0.771480000000     0.663180000000    -0.193812   
N275     N      0.489720000000     0.763540000000     0.597690000000    -0.177683   
N276     N      0.040020000000     0.728960000000     0.662210000000    -0.198885   
N277     N      0.602580000000     0.006700000000     0.760410000000    -0.192144   
N278     N      0.668310000000     0.512770000000     0.750380000000    -0.177013   
N279     N      0.600310000000     0.961120000000     0.722560000000    -0.200128   
N280     N      0.918030000000     0.010540000000     0.767590000000    -0.19252    
N281     N      0.853160000000     0.517960000000     0.754260000000    -0.177229   
N282     N      0.917080000000     0.560210000000     0.800040000000    -0.198804   
N283     N      0.481990000000     0.859770000000     0.756050000000    -0.194309   
N284     N      0.511660000000     0.916780000000     0.773660000000    -0.179055   
N285     N      0.451100000000     0.858980000000     0.805860000000    -0.199329   
N286     N      0.503820000000     0.673150000000     0.750110000000    -0.193736   
N287     N      0.009470000000     0.603950000000     0.754080000000    -0.177306   
N288     N      0.968470000000     0.666460000000     0.704260000000    -0.198425   
O1       O      0.007240000000     0.052850000000     0.232900000000    -0.558487   
O2       O      0.511460000000     0.461840000000     0.242570000000    -0.567986   
O3       O      0.464370000000     0.005220000000     0.239880000000    -0.560275   
O4       O      0.054240000000     0.507750000000     0.235640000000    -0.562009   
O5       O      0.056430000000     0.011530000000     0.288670000000    -0.556796   
O6       O      0.466440000000     0.516060000000     0.291920000000    -0.558458   
O7       O      0.009110000000     0.467650000000     0.295410000000    -0.554041   
O8       O      0.513630000000     0.058950000000     0.285380000000    -0.559278   
O9       O      0.015350000000     0.271760000000     0.302030000000    -0.560673   
O10      O      0.021990000000     0.267960000000     0.212220000000    -0.563197   
O11      O      0.013510000000     0.315070000000     0.254810000000    -0.562532   
O12      O      0.023580000000     0.224060000000     0.258870000000    -0.560265   
O13      O      0.472000000000     0.218270000000     0.248500000000    -0.559738   
O14      O      0.461010000000     0.308920000000     0.258870000000    -0.558843   
O15      O      0.469180000000     0.269430000000     0.208780000000    -0.555353   
O16      O      0.464200000000     0.258140000000     0.298520000000    -0.558367   
O17      O      0.306850000000     0.489410000000     0.249240000000    -0.557205   
O18      O      0.216570000000     0.486790000000     0.246980000000    -0.551647   
O19      O      0.263330000000     0.494510000000     0.204120000000    -0.563092   
O20      O      0.261380000000     0.480800000000     0.293250000000    -0.561031   
O21      O      0.257520000000     0.034140000000     0.301480000000    -0.557517   
O22      O      0.260740000000     0.047990000000     0.211890000000    -0.555366   
O23      O      0.214960000000     0.040110000000     0.255690000000    -0.564234   
O24      O      0.304650000000     0.042530000000     0.258990000000    -0.557699   
O25      O      0.293400000000     0.517600000000     0.047000000000    -0.554698   
O26      O      0.291020000000     0.009400000000     0.456970000000    -0.556849   
O27      O      0.297210000000     0.059350000000     0.998340000000    -0.546028   
O28      O      0.287260000000     0.468250000000     0.505480000000    -0.558437   
O29      O      0.234950000000     0.474730000000     0.010430000000    -0.547213   
O30      O      0.244580000000     0.065080000000     0.495170000000    -0.559787   
O31      O      0.238220000000     0.513660000000     0.458170000000    -0.555537   
O32      O      0.241480000000     0.028070000000     0.047500000000    -0.55066    
O33      O      0.492770000000     0.236310000000     0.050700000000    -0.561658   
O34      O      0.996670000000     0.234540000000     0.460860000000    -0.564931   
O35      O      0.039630000000     0.236110000000     0.008820000000    -0.554393   
O36      O      0.449630000000     0.235460000000     0.502840000000    -0.560257   
O37      O      0.449490000000     0.289590000000     0.002250000000    -0.564092   
O38      O      0.039050000000     0.290190000000     0.507510000000    -0.557843   
O39      O      0.497660000000     0.288610000000     0.459600000000    -0.555005   
O40      O      0.990600000000     0.290410000000     0.050000000000    -0.552703   
O41      O      0.248440000000     0.216610000000     0.032140000000    -0.550141   
O42      O      0.239860000000     0.308370000000     0.031190000000    -0.550622   
O43      O      0.199360000000     0.257940000000     0.031360000000    -0.555687   
O44      O      0.289000000000     0.266460000000     0.031940000000    -0.550642   
O45      O      0.289290000000     0.257910000000     0.479450000000    -0.556517   
O46      O      0.199640000000     0.265390000000     0.478680000000    -0.558995   
O47      O      0.248090000000     0.307790000000     0.478690000000    -0.555457   
O48      O      0.241140000000     0.216060000000     0.479510000000    -0.555912   
O49      O      0.007240000000     0.052850000000     0.732900000000    -0.558375   
O50      O      0.511460000000     0.461840000000     0.742570000000    -0.567923   
O51      O      0.464370000000     0.005220000000     0.739880000000    -0.560189   
O52      O      0.054240000000     0.507750000000     0.735640000000    -0.561915   
O53      O      0.056430000000     0.011530000000     0.788670000000    -0.556601   
O54      O      0.466440000000     0.516060000000     0.791920000000    -0.558308   
O55      O      0.009110000000     0.467650000000     0.795410000000    -0.553809   
O56      O      0.513630000000     0.058950000000     0.785380000000    -0.559152   
O57      O      0.015350000000     0.271760000000     0.802030000000    -0.560621   
O58      O      0.021990000000     0.267960000000     0.712220000000    -0.563216   
O59      O      0.013510000000     0.315070000000     0.754810000000    -0.562527   
O60      O      0.023580000000     0.224060000000     0.758870000000    -0.56026    
O61      O      0.472000000000     0.218270000000     0.748500000000    -0.559733   
O62      O      0.461010000000     0.308920000000     0.758870000000    -0.558829   
O63      O      0.469180000000     0.269430000000     0.708780000000    -0.555345   
O64      O      0.464200000000     0.258140000000     0.798520000000    -0.558332   
O65      O      0.306850000000     0.489410000000     0.749240000000    -0.557199   
O66      O      0.216570000000     0.486790000000     0.746980000000    -0.551624   
O67      O      0.263330000000     0.494510000000     0.704120000000    -0.56307    
O68      O      0.261380000000     0.480800000000     0.793250000000    -0.561016   
O69      O      0.257520000000     0.034140000000     0.801480000000    -0.557648   
O70      O      0.260740000000     0.047990000000     0.711890000000    -0.555212   
O71      O      0.214960000000     0.040110000000     0.755690000000    -0.564224   
O72      O      0.304650000000     0.042530000000     0.758990000000    -0.557697   
O73      O      0.293400000000     0.517600000000     0.547000000000    -0.557158   
O74      O      0.291020000000     0.009400000000     0.956970000000    -0.548134   
O75      O      0.297210000000     0.059350000000     0.498340000000    -0.556752   
O76      O      0.287260000000     0.468250000000     0.005480000000    -0.557392   
O77      O      0.234950000000     0.474730000000     0.510430000000    -0.548992   
O78      O      0.244580000000     0.065080000000     0.995170000000    -0.550136   
O79      O      0.238220000000     0.513660000000     0.958170000000    -0.546711   
O80      O      0.241480000000     0.028070000000     0.547500000000    -0.552931   
O81      O      0.492770000000     0.236310000000     0.550700000000    -0.563686   
O82      O      0.996670000000     0.234540000000     0.960860000000    -0.556866   
O83      O      0.039630000000     0.236110000000     0.508820000000    -0.554204   
O84      O      0.449630000000     0.235460000000     0.002840000000    -0.562103   
O85      O      0.449490000000     0.289590000000     0.502250000000    -0.563579   
O86      O      0.039050000000     0.290190000000     0.007510000000    -0.558607   
O87      O      0.497660000000     0.288610000000     0.959600000000    -0.546807   
O88      O      0.990600000000     0.290410000000     0.550000000000    -0.554557   
O89      O      0.248440000000     0.216610000000     0.532140000000    -0.553728   
O90      O      0.239860000000     0.308370000000     0.531190000000    -0.55437    
O91      O      0.199360000000     0.257940000000     0.531360000000    -0.559643   
O92      O      0.289000000000     0.266460000000     0.531940000000    -0.554192   
O93      O      0.289290000000     0.257910000000     0.979450000000    -0.547794   
O94      O      0.199640000000     0.265390000000     0.978680000000    -0.550401   
O95      O      0.248090000000     0.307790000000     0.978700000000    -0.547092   
O96      O      0.241140000000     0.216060000000     0.979510000000    -0.547263   
O97      O      0.007240000000     0.552850000000     0.232900000000    -0.558488   
O98      O      0.511460000000     0.961840000000     0.242570000000    -0.567846   
O99      O      0.464370000000     0.505220000000     0.239880000000    -0.560248   
O100     O      0.054240000000     0.007750000000     0.235640000000    -0.562036   
O101     O      0.056430000000     0.511530000000     0.288670000000    -0.556788   
O102     O      0.466440000000     0.016060000000     0.291920000000    -0.558479   
O103     O      0.009110000000     0.967650000000     0.295410000000    -0.55376    
O104     O      0.513630000000     0.558950000000     0.285380000000    -0.559136   
O105     O      0.015350000000     0.771760000000     0.302030000000    -0.560638   
O106     O      0.021990000000     0.767960000000     0.212220000000    -0.563166   
O107     O      0.013510000000     0.815070000000     0.254810000000    -0.562478   
O108     O      0.023580000000     0.724050000000     0.258870000000    -0.560184   
O109     O      0.472000000000     0.718260000000     0.248500000000    -0.559639   
O110     O      0.461010000000     0.808920000000     0.258870000000    -0.558791   
O111     O      0.469180000000     0.769430000000     0.208780000000    -0.555322   
O112     O      0.464200000000     0.758140000000     0.298520000000    -0.558335   
O113     O      0.306850000000     0.989410000000     0.249240000000    -0.557076   
O114     O      0.216570000000     0.986790000000     0.246980000000    -0.551511   
O115     O      0.263330000000     0.994510000000     0.204120000000    -0.562944   
O116     O      0.261380000000     0.980800000000     0.293250000000    -0.560898   
O117     O      0.257520000000     0.534140000000     0.301480000000    -0.557577   
O118     O      0.260740000000     0.547990000000     0.211890000000    -0.555429   
O119     O      0.214960000000     0.540110000000     0.255690000000    -0.564292   
O120     O      0.304650000000     0.542530000000     0.258990000000    -0.557753   
O121     O      0.293400000000     0.017600000000     0.047000000000    -0.554711   
O122     O      0.291020000000     0.509390000000     0.456970000000    -0.556797   
O123     O      0.297210000000     0.559350000000     0.998340000000    -0.546066   
O124     O      0.287260000000     0.968250000000     0.505480000000    -0.55833    
O125     O      0.234950000000     0.974730000000     0.010430000000    -0.547087   
O126     O      0.244580000000     0.565080000000     0.495170000000    -0.55982    
O127     O      0.238220000000     0.013660000000     0.458170000000    -0.555554   
O128     O      0.241480000000     0.528070000000     0.047500000000    -0.550658   
O129     O      0.492770000000     0.736310000000     0.050700000000    -0.561657   
O130     O      0.996670000000     0.734540000000     0.460860000000    -0.56493    
O131     O      0.039630000000     0.736110000000     0.008820000000    -0.554392   
O132     O      0.449630000000     0.735460000000     0.502840000000    -0.560256   
O133     O      0.449490000000     0.789590000000     0.002250000000    -0.564089   
O134     O      0.039050000000     0.790190000000     0.507510000000    -0.557839   
O135     O      0.497660000000     0.788610000000     0.459600000000    -0.555002   
O136     O      0.990600000000     0.790410000000     0.050000000000    -0.552701   
O137     O      0.248440000000     0.716610000000     0.032140000000    -0.550173   
O138     O      0.239860000000     0.808370000000     0.031190000000    -0.550624   
O139     O      0.199360000000     0.757940000000     0.031360000000    -0.555689   
O140     O      0.289000000000     0.766460000000     0.031940000000    -0.550643   
O141     O      0.289290000000     0.757910000000     0.479450000000    -0.556518   
O142     O      0.199640000000     0.765390000000     0.478680000000    -0.558996   
O143     O      0.248090000000     0.807790000000     0.478690000000    -0.555458   
O144     O      0.241140000000     0.716060000000     0.479510000000    -0.555945   
O145     O      0.007240000000     0.552850000000     0.732900000000    -0.558377   
O146     O      0.511460000000     0.961840000000     0.742570000000    -0.567783   
O147     O      0.464370000000     0.505220000000     0.739880000000    -0.560162   
O148     O      0.054240000000     0.007750000000     0.735640000000    -0.561942   
O149     O      0.056430000000     0.511530000000     0.788670000000    -0.556593   
O150     O      0.466440000000     0.016060000000     0.791920000000    -0.558329   
O151     O      0.009110000000     0.967650000000     0.795410000000    -0.553528   
O152     O      0.513630000000     0.558950000000     0.785380000000    -0.55901    
O153     O      0.015350000000     0.771760000000     0.802030000000    -0.560586   
O154     O      0.021990000000     0.767960000000     0.712220000000    -0.563184   
O155     O      0.013510000000     0.815070000000     0.754810000000    -0.562474   
O156     O      0.023580000000     0.724050000000     0.758870000000    -0.560179   
O157     O      0.472000000000     0.718260000000     0.748500000000    -0.559635   
O158     O      0.461010000000     0.808920000000     0.758870000000    -0.558777   
O159     O      0.469180000000     0.769430000000     0.708780000000    -0.555313   
O160     O      0.464200000000     0.758140000000     0.798520000000    -0.5583     
O161     O      0.306850000000     0.989410000000     0.749240000000    -0.557071   
O162     O      0.216570000000     0.986790000000     0.746980000000    -0.551489   
O163     O      0.263330000000     0.994510000000     0.704120000000    -0.562923   
O164     O      0.261380000000     0.980800000000     0.793250000000    -0.560883   
O165     O      0.257520000000     0.534140000000     0.801480000000    -0.557708   
O166     O      0.260740000000     0.547990000000     0.711890000000    -0.555275   
O167     O      0.214960000000     0.540110000000     0.755690000000    -0.564282   
O168     O      0.304650000000     0.542530000000     0.758990000000    -0.557751   
O169     O      0.293400000000     0.017600000000     0.547000000000    -0.55717    
O170     O      0.291020000000     0.509390000000     0.956970000000    -0.548082   
O171     O      0.297210000000     0.559350000000     0.498340000000    -0.55679    
O172     O      0.287260000000     0.968250000000     0.005480000000    -0.557285   
O173     O      0.234950000000     0.974730000000     0.510430000000    -0.548867   
O174     O      0.244580000000     0.565080000000     0.995170000000    -0.55017    
O175     O      0.238220000000     0.013660000000     0.958170000000    -0.546727   
O176     O      0.241480000000     0.528070000000     0.547500000000    -0.552929   
O177     O      0.492770000000     0.736310000000     0.550700000000    -0.563685   
O178     O      0.996670000000     0.734540000000     0.960860000000    -0.556865   
O179     O      0.039630000000     0.736110000000     0.508820000000    -0.554203   
O180     O      0.449630000000     0.735460000000     0.002840000000    -0.562103   
O181     O      0.449490000000     0.789590000000     0.502250000000    -0.563576   
O182     O      0.039050000000     0.790190000000     0.007510000000    -0.558603   
O183     O      0.497660000000     0.788610000000     0.959600000000    -0.546806   
O184     O      0.990600000000     0.790410000000     0.550000000000    -0.554555   
O185     O      0.248440000000     0.716610000000     0.532140000000    -0.55376    
O186     O      0.239860000000     0.808370000000     0.531190000000    -0.554371   
O187     O      0.199360000000     0.757940000000     0.531360000000    -0.559644   
O188     O      0.289000000000     0.766460000000     0.531940000000    -0.554193   
O189     O      0.289290000000     0.757910000000     0.979450000000    -0.547796   
O190     O      0.199640000000     0.765390000000     0.978680000000    -0.550403   
O191     O      0.248090000000     0.807790000000     0.978700000000    -0.547094   
O192     O      0.241140000000     0.716060000000     0.979510000000    -0.547296   
O193     O      0.507240000000     0.052850000000     0.232900000000    -0.558996   
O194     O      0.011460000000     0.461840000000     0.242570000000    -0.567722   
O195     O      0.964370000000     0.005220000000     0.239880000000    -0.562631   
O196     O      0.554240000000     0.507750000000     0.235640000000    -0.561463   
O197     O      0.556430000000     0.011530000000     0.288670000000    -0.556269   
O198     O      0.966440000000     0.516060000000     0.291920000000    -0.560797   
O199     O      0.509110000000     0.467650000000     0.295410000000    -0.554584   
O200     O      0.013630000000     0.058950000000     0.285380000000    -0.559126   
O201     O      0.515350000000     0.271760000000     0.302030000000    -0.563417   
O202     O      0.521990000000     0.267960000000     0.212220000000    -0.565722   
O203     O      0.513510000000     0.315070000000     0.254810000000    -0.565009   
O204     O      0.523580000000     0.224060000000     0.258870000000    -0.563277   
O205     O      0.972000000000     0.218270000000     0.248500000000    -0.558166   
O206     O      0.961010000000     0.308920000000     0.258870000000    -0.557754   
O207     O      0.969180000000     0.269430000000     0.208780000000    -0.554298   
O208     O      0.964200000000     0.258140000000     0.298520000000    -0.557164   
O209     O      0.806850000000     0.489410000000     0.249240000000    -0.557214   
O210     O      0.716570000000     0.486790000000     0.246980000000    -0.551683   
O211     O      0.763330000000     0.494510000000     0.204120000000    -0.563105   
O212     O      0.761380000000     0.480800000000     0.293250000000    -0.561038   
O213     O      0.757520000000     0.034140000000     0.301480000000    -0.557481   
O214     O      0.760740000000     0.047990000000     0.211890000000    -0.55533    
O215     O      0.714950000000     0.040110000000     0.255690000000    -0.564098   
O216     O      0.804650000000     0.042530000000     0.258990000000    -0.557651   
O217     O      0.793390000000     0.517600000000     0.047000000000    -0.554934   
O218     O      0.791020000000     0.009400000000     0.456970000000    -0.5569     
O219     O      0.797210000000     0.059350000000     0.998340000000    -0.546078   
O220     O      0.787260000000     0.468250000000     0.505480000000    -0.558477   
O221     O      0.734950000000     0.474730000000     0.010430000000    -0.547254   
O222     O      0.744580000000     0.065080000000     0.495170000000    -0.55981    
O223     O      0.738220000000     0.513660000000     0.458170000000    -0.555576   
O224     O      0.741480000000     0.028070000000     0.047500000000    -0.550763   
O225     O      0.992770000000     0.236310000000     0.050700000000    -0.562078   
O226     O      0.496670000000     0.234540000000     0.460860000000    -0.564756   
O227     O      0.539630000000     0.236110000000     0.008820000000    -0.556774   
O228     O      0.949630000000     0.235460000000     0.502840000000    -0.559732   
O229     O      0.949490000000     0.289590000000     0.002250000000    -0.563573   
O230     O      0.539050000000     0.290190000000     0.507510000000    -0.560242   
O231     O      0.997660000000     0.288610000000     0.459600000000    -0.555492   
O232     O      0.490600000000     0.290410000000     0.050000000000    -0.552543   
O233     O      0.748440000000     0.216610000000     0.032140000000    -0.550137   
O234     O      0.739860000000     0.308370000000     0.031190000000    -0.550618   
O235     O      0.699360000000     0.257940000000     0.031360000000    -0.555688   
O236     O      0.789000000000     0.266460000000     0.031940000000    -0.550637   
O237     O      0.789290000000     0.257910000000     0.479450000000    -0.556517   
O238     O      0.699640000000     0.265390000000     0.478680000000    -0.559014   
O239     O      0.748090000000     0.307790000000     0.478690000000    -0.555463   
O240     O      0.741140000000     0.216060000000     0.479510000000    -0.555919   
O241     O      0.507240000000     0.052850000000     0.732900000000    -0.55888    
O242     O      0.011460000000     0.461840000000     0.742570000000    -0.56766    
O243     O      0.964370000000     0.005220000000     0.739880000000    -0.56253    
O244     O      0.554240000000     0.507750000000     0.735640000000    -0.561373   
O245     O      0.556430000000     0.011530000000     0.788670000000    -0.556078   
O246     O      0.966440000000     0.516060000000     0.791920000000    -0.56063    
O247     O      0.509110000000     0.467650000000     0.795410000000    -0.554347   
O248     O      0.013630000000     0.058950000000     0.785380000000    -0.559002   
O249     O      0.515350000000     0.271760000000     0.802030000000    -0.563344   
O250     O      0.521990000000     0.267960000000     0.712220000000    -0.565726   
O251     O      0.513510000000     0.315070000000     0.754810000000    -0.564987   
O252     O      0.523580000000     0.224060000000     0.758870000000    -0.563252   
O253     O      0.972000000000     0.218270000000     0.748500000000    -0.558171   
O254     O      0.961010000000     0.308920000000     0.758870000000    -0.557747   
O255     O      0.969180000000     0.269430000000     0.708780000000    -0.554296   
O256     O      0.964200000000     0.258140000000     0.798520000000    -0.557137   
O257     O      0.806850000000     0.489410000000     0.749240000000    -0.557209   
O258     O      0.716570000000     0.486790000000     0.746980000000    -0.55166    
O259     O      0.763330000000     0.494510000000     0.704120000000    -0.563083   
O260     O      0.761380000000     0.480800000000     0.793250000000    -0.561022   
O261     O      0.757520000000     0.034140000000     0.801480000000    -0.557612   
O262     O      0.760740000000     0.047990000000     0.711890000000    -0.555177   
O263     O      0.714950000000     0.040110000000     0.755690000000    -0.564088   
O264     O      0.804650000000     0.042530000000     0.758990000000    -0.55765    
O265     O      0.793390000000     0.517600000000     0.547000000000    -0.557398   
O266     O      0.791020000000     0.009400000000     0.956970000000    -0.548174   
O267     O      0.797210000000     0.059350000000     0.498340000000    -0.556816   
O268     O      0.787260000000     0.468250000000     0.005480000000    -0.55743    
O269     O      0.734950000000     0.474730000000     0.510430000000    -0.549037   
O270     O      0.744580000000     0.065080000000     0.995170000000    -0.550139   
O271     O      0.738220000000     0.513660000000     0.958170000000    -0.54673    
O272     O      0.741480000000     0.028070000000     0.547500000000    -0.553039   
O273     O      0.992770000000     0.236310000000     0.550700000000    -0.564102   
O274     O      0.496670000000     0.234540000000     0.960860000000    -0.556687   
O275     O      0.539630000000     0.236110000000     0.508820000000    -0.556572   
O276     O      0.949630000000     0.235460000000     0.002840000000    -0.561577   
O277     O      0.949490000000     0.289590000000     0.502250000000    -0.563061   
O278     O      0.539050000000     0.290190000000     0.007510000000    -0.561021   
O279     O      0.997660000000     0.288610000000     0.959600000000    -0.547296   
O280     O      0.490600000000     0.290410000000     0.550000000000    -0.554398   
O281     O      0.748440000000     0.216610000000     0.532140000000    -0.553732   
O282     O      0.739860000000     0.308370000000     0.531190000000    -0.554373   
O283     O      0.699360000000     0.257940000000     0.531360000000    -0.559653   
O284     O      0.789000000000     0.266460000000     0.531940000000    -0.554193   
O285     O      0.789290000000     0.257910000000     0.979450000000    -0.547783   
O286     O      0.699640000000     0.265390000000     0.978680000000    -0.550397   
O287     O      0.748090000000     0.307790000000     0.978700000000    -0.547082   
O288     O      0.741140000000     0.216060000000     0.979510000000    -0.547252   
O289     O      0.507240000000     0.552850000000     0.232900000000    -0.558997   
O290     O      0.011460000000     0.961840000000     0.242570000000    -0.567582   
O291     O      0.964370000000     0.505220000000     0.239880000000    -0.562605   
O292     O      0.554240000000     0.007750000000     0.235640000000    -0.56149    
O293     O      0.556430000000     0.511530000000     0.288670000000    -0.556261   
O294     O      0.966440000000     0.016060000000     0.291920000000    -0.560818   
O295     O      0.509110000000     0.967650000000     0.295410000000    -0.554304   
O296     O      0.013630000000     0.558950000000     0.285380000000    -0.558984   
O297     O      0.515350000000     0.771760000000     0.302030000000    -0.563383   
O298     O      0.521990000000     0.767960000000     0.212220000000    -0.565691   
O299     O      0.513510000000     0.815070000000     0.254810000000    -0.564955   
O300     O      0.523580000000     0.724050000000     0.258870000000    -0.563199   
O301     O      0.972000000000     0.718260000000     0.248500000000    -0.558066   
O302     O      0.961010000000     0.808920000000     0.258870000000    -0.557702   
O303     O      0.969180000000     0.769430000000     0.208780000000    -0.554267   
O304     O      0.964200000000     0.758140000000     0.298520000000    -0.557131   
O305     O      0.806850000000     0.989410000000     0.249240000000    -0.557086   
O306     O      0.716570000000     0.986790000000     0.246980000000    -0.551547   
O307     O      0.763330000000     0.994510000000     0.204120000000    -0.562958   
O308     O      0.761380000000     0.980800000000     0.293250000000    -0.560904   
O309     O      0.757520000000     0.534140000000     0.301480000000    -0.557541   
O310     O      0.760740000000     0.547990000000     0.211890000000    -0.555393   
O311     O      0.714950000000     0.540110000000     0.255690000000    -0.564156   
O312     O      0.804650000000     0.542530000000     0.258990000000    -0.557706   
O313     O      0.793390000000     0.017600000000     0.047000000000    -0.554946   
O314     O      0.791020000000     0.509390000000     0.456970000000    -0.556848   
O315     O      0.797210000000     0.559350000000     0.998340000000    -0.546116   
O316     O      0.787260000000     0.968250000000     0.505480000000    -0.55837    
O317     O      0.734950000000     0.974730000000     0.010430000000    -0.547129   
O318     O      0.744580000000     0.565080000000     0.495170000000    -0.559844   
O319     O      0.738220000000     0.013660000000     0.458170000000    -0.555593   
O320     O      0.741480000000     0.528070000000     0.047500000000    -0.550761   
O321     O      0.992770000000     0.736310000000     0.050700000000    -0.562077   
O322     O      0.496670000000     0.734540000000     0.460860000000    -0.564755   
O323     O      0.539630000000     0.736110000000     0.008820000000    -0.556773   
O324     O      0.949630000000     0.735460000000     0.502840000000    -0.559731   
O325     O      0.949490000000     0.789590000000     0.002250000000    -0.56357    
O326     O      0.539050000000     0.790190000000     0.507510000000    -0.560239   
O327     O      0.997660000000     0.788610000000     0.459600000000    -0.55549    
O328     O      0.490600000000     0.790410000000     0.050000000000    -0.55254    
O329     O      0.748440000000     0.716610000000     0.032140000000    -0.550169   
O330     O      0.739860000000     0.808370000000     0.031190000000    -0.550619   
O331     O      0.699360000000     0.757940000000     0.031360000000    -0.55569    
O332     O      0.789000000000     0.766460000000     0.031940000000    -0.550638   
O333     O      0.789290000000     0.757910000000     0.479450000000    -0.556519   
O334     O      0.699640000000     0.765390000000     0.478680000000    -0.559015   
O335     O      0.748090000000     0.807790000000     0.478690000000    -0.555464   
O336     O      0.741140000000     0.716060000000     0.479510000000    -0.555952   
O337     O      0.507240000000     0.552850000000     0.732900000000    -0.558881   
O338     O      0.011460000000     0.961840000000     0.742570000000    -0.567521   
O339     O      0.964370000000     0.505220000000     0.739880000000    -0.562503   
O340     O      0.554240000000     0.007750000000     0.735640000000    -0.5614     
O341     O      0.556430000000     0.511530000000     0.788670000000    -0.55607    
O342     O      0.966440000000     0.016060000000     0.791920000000    -0.56065    
O343     O      0.509110000000     0.967650000000     0.795410000000    -0.554067   
O344     O      0.013630000000     0.558950000000     0.785380000000    -0.55886    
O345     O      0.515350000000     0.771760000000     0.802030000000    -0.563309   
O346     O      0.521990000000     0.767960000000     0.712220000000    -0.565695   
O347     O      0.513510000000     0.815070000000     0.754810000000    -0.564933   
O348     O      0.523580000000     0.724050000000     0.758870000000    -0.563174   
O349     O      0.972000000000     0.718260000000     0.748500000000    -0.558072   
O350     O      0.961010000000     0.808920000000     0.758870000000    -0.557695   
O351     O      0.969180000000     0.769430000000     0.708780000000    -0.554264   
O352     O      0.964200000000     0.758140000000     0.798520000000    -0.557104   
O353     O      0.806850000000     0.989410000000     0.749240000000    -0.557081   
O354     O      0.716570000000     0.986790000000     0.746980000000    -0.551525   
O355     O      0.763330000000     0.994510000000     0.704120000000    -0.562936   
O356     O      0.761380000000     0.980800000000     0.793250000000    -0.56089    
O357     O      0.757520000000     0.534140000000     0.801480000000    -0.557672   
O358     O      0.760740000000     0.547990000000     0.711890000000    -0.555239   
O359     O      0.714950000000     0.540110000000     0.755690000000    -0.564145   
O360     O      0.804650000000     0.542530000000     0.758990000000    -0.557703   
O361     O      0.793390000000     0.017600000000     0.547000000000    -0.55741    
O362     O      0.791020000000     0.509390000000     0.956970000000    -0.548121   
O363     O      0.797210000000     0.559350000000     0.498340000000    -0.556854   
O364     O      0.787260000000     0.968250000000     0.005480000000    -0.557322   
O365     O      0.734950000000     0.974730000000     0.510430000000    -0.548912   
O366     O      0.744580000000     0.565080000000     0.995170000000    -0.550173   
O367     O      0.738220000000     0.013660000000     0.958170000000    -0.546747   
O368     O      0.741480000000     0.528070000000     0.547500000000    -0.553037   
O369     O      0.992770000000     0.736310000000     0.550700000000    -0.564101   
O370     O      0.496670000000     0.734540000000     0.960860000000    -0.556687   
O371     O      0.539630000000     0.736110000000     0.508820000000    -0.556571   
O372     O      0.949630000000     0.735460000000     0.002840000000    -0.561576   
O373     O      0.949490000000     0.789590000000     0.502250000000    -0.563059   
O374     O      0.539050000000     0.790190000000     0.007510000000    -0.561018   
O375     O      0.997660000000     0.788610000000     0.959600000000    -0.547294   
O376     O      0.490600000000     0.790410000000     0.550000000000    -0.554396   
O377     O      0.748440000000     0.716610000000     0.532140000000    -0.553764   
O378     O      0.739860000000     0.808370000000     0.531190000000    -0.554374   
O379     O      0.699360000000     0.757940000000     0.531360000000    -0.559655   
O380     O      0.789000000000     0.766460000000     0.531940000000    -0.554194   
O381     O      0.789290000000     0.757910000000     0.979450000000    -0.547785   
O382     O      0.699640000000     0.765390000000     0.978680000000    -0.550398   
O383     O      0.748090000000     0.807790000000     0.978700000000    -0.547083   
O384     O      0.741140000000     0.716060000000     0.979510000000    -0.547285   
V1       V      0.509210000000     0.006850000000     0.235590000000     1.40026    
V2       V      0.511500000000     0.513720000000     0.292530000000     1.38127    
V3       V      0.020830000000     0.269920000000     0.257230000000     1.40661    
V4       V      0.464340000000     0.263360000000     0.253520000000     1.37379    
V5       V      0.261980000000     0.485710000000     0.248200000000     1.38766    
V6       V      0.259530000000     0.043350000000     0.257230000000     1.38965    
V7       V      0.294340000000     0.013410000000     0.001940000000     1.37154    
V8       V      0.237630000000     0.020420000000     0.502940000000     1.37653    
V9       V      0.994670000000     0.233450000000     0.005820000000     1.38553    
V10      V      0.994210000000     0.291880000000     0.504770000000     1.38706    
V11      V      0.244120000000     0.262470000000     0.033940000000     1.36069    
V12      V      0.244530000000     0.261870000000     0.476810000000     1.38939    
V13      V      0.509210000000     0.006850000000     0.735590000000     1.40032    
V14      V      0.511500000000     0.513720000000     0.792530000000     1.38204    
V15      V      0.020830000000     0.269920000000     0.757230000000     1.4066     
V16      V      0.464340000000     0.263360000000     0.753520000000     1.37374    
V17      V      0.261980000000     0.485710000000     0.748200000000     1.38766    
V18      V      0.259530000000     0.043350000000     0.757240000000     1.38966    
V19      V      0.294340000000     0.013410000000     0.501940000000     1.39209    
V20      V      0.237630000000     0.020420000000     0.002940000000     1.35626    
V21      V      0.994670000000     0.233450000000     0.505830000000     1.39713    
V22      V      0.994210000000     0.291880000000     0.004770000000     1.37582    
V23      V      0.244120000000     0.262470000000     0.533940000000     1.37439    
V24      V      0.244530000000     0.261870000000     0.976810000000     1.39619    
V25      V      0.509210000000     0.506850000000     0.235590000000     1.40042    
V26      V      0.511500000000     0.013730000000     0.292530000000     1.38114    
V27      V      0.020830000000     0.769920000000     0.257230000000     1.40636    
V28      V      0.464340000000     0.763360000000     0.253520000000     1.37355    
V29      V      0.261980000000     0.985710000000     0.248200000000     1.38776    
V30      V      0.259530000000     0.543350000000     0.257230000000     1.38986    
V31      V      0.294340000000     0.513410000000     0.001940000000     1.37167    
V32      V      0.237630000000     0.520420000000     0.502940000000     1.37669    
V33      V      0.994670000000     0.733450000000     0.005820000000     1.38553    
V34      V      0.994210000000     0.791880000000     0.504770000000     1.38707    
V35      V      0.244120000000     0.762470000000     0.033940000000     1.3607     
V36      V      0.244530000000     0.761870000000     0.476810000000     1.3894     
V37      V      0.509210000000     0.506850000000     0.735590000000     1.40047    
V38      V      0.511500000000     0.013730000000     0.792530000000     1.38191    
V39      V      0.020830000000     0.769920000000     0.757230000000     1.40635    
V40      V      0.464340000000     0.763360000000     0.753520000000     1.3735     
V41      V      0.261980000000     0.985710000000     0.748200000000     1.38775    
V42      V      0.259530000000     0.543350000000     0.757240000000     1.38986    
V43      V      0.294340000000     0.513410000000     0.501940000000     1.39222    
V44      V      0.237630000000     0.520420000000     0.002940000000     1.35641    
V45      V      0.994670000000     0.733450000000     0.505830000000     1.39713    
V46      V      0.994210000000     0.791880000000     0.004770000000     1.37583    
V47      V      0.244120000000     0.762470000000     0.533940000000     1.37439    
V48      V      0.244530000000     0.761870000000     0.976810000000     1.3962     
V49      V      0.009210000000     0.006850000000     0.235590000000     1.40371    
V50      V      0.011500000000     0.513720000000     0.292530000000     1.38459    
V51      V      0.520830000000     0.269920000000     0.257230000000     1.40491    
V52      V      0.964340000000     0.263360000000     0.253520000000     1.36974    
V53      V      0.761980000000     0.485710000000     0.248200000000     1.38775    
V54      V      0.759530000000     0.043350000000     0.257230000000     1.38934    
V55      V      0.794340000000     0.013410000000     0.001940000000     1.37144    
V56      V      0.737630000000     0.020420000000     0.502940000000     1.37648    
V57      V      0.494670000000     0.233450000000     0.005820000000     1.3887     
V58      V      0.494210000000     0.291880000000     0.504770000000     1.39025    
V59      V      0.744120000000     0.262470000000     0.033940000000     1.36068    
V60      V      0.744530000000     0.261870000000     0.476810000000     1.3894     
V61      V      0.009210000000     0.006850000000     0.735590000000     1.40374    
V62      V      0.011500000000     0.513720000000     0.792530000000     1.38532    
V63      V      0.520830000000     0.269920000000     0.757230000000     1.40492    
V64      V      0.964340000000     0.263360000000     0.753520000000     1.36971    
V65      V      0.761980000000     0.485710000000     0.748200000000     1.38774    
V66      V      0.759530000000     0.043350000000     0.757240000000     1.38934    
V67      V      0.794340000000     0.013410000000     0.501940000000     1.39201    
V68      V      0.737630000000     0.020420000000     0.002940000000     1.35616    
V69      V      0.494670000000     0.233450000000     0.505830000000     1.4003     
V70      V      0.494210000000     0.291880000000     0.004770000000     1.37901    
V71      V      0.744120000000     0.262470000000     0.533940000000     1.3744     
V72      V      0.744530000000     0.261870000000     0.976810000000     1.39621    
V73      V      0.009210000000     0.506850000000     0.235590000000     1.40387    
V74      V      0.011500000000     0.013730000000     0.292530000000     1.38446    
V75      V      0.520830000000     0.769920000000     0.257230000000     1.40466    
V76      V      0.964340000000     0.763360000000     0.253520000000     1.3695     
V77      V      0.761980000000     0.985710000000     0.248200000000     1.38784    
V78      V      0.759530000000     0.543350000000     0.257230000000     1.38955    
V79      V      0.794340000000     0.513410000000     0.001940000000     1.37158    
V80      V      0.737630000000     0.520420000000     0.502940000000     1.37664    
V81      V      0.494670000000     0.733450000000     0.005820000000     1.38869    
V82      V      0.494210000000     0.791880000000     0.504770000000     1.39027    
V83      V      0.744120000000     0.762470000000     0.033940000000     1.36069    
V84      V      0.744530000000     0.761870000000     0.476810000000     1.38941    
V85      V      0.009210000000     0.506850000000     0.735590000000     1.4039     
V86      V      0.011500000000     0.013730000000     0.792530000000     1.38519    
V87      V      0.520830000000     0.769920000000     0.757230000000     1.40467    
V88      V      0.964340000000     0.763360000000     0.753520000000     1.36947    
V89      V      0.761980000000     0.985710000000     0.748200000000     1.38784    
V90      V      0.759530000000     0.543350000000     0.757240000000     1.38955    
V91      V      0.794340000000     0.513410000000     0.501940000000     1.39215    
V92      V      0.737630000000     0.520420000000     0.002940000000     1.35632    
V93      V      0.494670000000     0.733450000000     0.505830000000     1.4003     
V94      V      0.494210000000     0.791880000000     0.004770000000     1.37902    
V95      V      0.744120000000     0.762470000000     0.533940000000     1.37441    
V96      V      0.744530000000     0.761870000000     0.976810000000     1.39622    


