data_structure

_audit_creation_method RASPA-1.0
_audit_creation_date 2023-5-22
_audit_author_name 'Poobodin Mano'

_cell_length_a    41.2919
_cell_length_b    41.8219
_cell_length_c    41.7222
_cell_angle_alpha 90
_cell_angle_beta  90
_cell_angle_gamma 90
_cell_volume      72050.3

_symmetry_cell_setting          triclinic
_symmetry_space_group_name_Hall 'P 1'
_symmetry_space_group_name_H-M  'P 1'
_symmetry_Int_Tables_number     1

_symmetry_equiv_pos_as_xyz 'x,y,z'

loop_
_atom_site_label
_atom_site_type_symbol
_atom_site_fract_x
_atom_site_fract_y
_atom_site_fract_z
_atom_site_charge
C1       C      0.510820000000     0.437220000000     0.118400000000     0.47208    
C2       C      0.507280000000     0.058250000000     0.125920000000     0.474433   
C3       C      0.009450000000     0.994600000000     0.183110000000     0.473546   
C4       C      0.009550000000     0.001490000000     0.061820000000     0.473077   
C5       C      0.007960000000     0.306500000000     0.123400000000     0.47259    
C6       C      0.004440000000     0.186230000000     0.108000000000     0.473634   
C7       C      0.502390000000     0.238850000000     0.175400000000     0.476091   
C8       C      0.509250000000     0.253530000000     0.055230000000     0.474575   
C9       C      0.261360000000     0.439530000000     0.155680000000     0.47462    
C10      C      0.264590000000     0.060550000000     0.153550000000     0.475233   
C11      C      0.264150000000     0.999630000000     0.093030000000     0.481317   
C12      C      0.260800000000     0.000630000000     0.214450000000     0.468709   
C13      C      0.263990000000     0.253280000000     0.079260000000     0.475268   
C14      C      0.268030000000     0.244580000000     0.200270000000     0.473346   
C15      C      0.267660000000     0.188540000000     0.135080000000     0.475454   
C16      C      0.263410000000     0.309290000000     0.142930000000     0.474565   
C17      C      0.512740000000     0.027350000000     0.934810000000     0.473401   
C18      C      0.515770000000     0.014160000000     0.814180000000     0.47359    
C19      C      0.015250000000     0.081250000000     0.867470000000     0.471685   
C20      C      0.013900000000     0.460640000000     0.880720000000     0.472913   
C21      C      0.514090000000     0.278190000000     0.927950000000     0.4753     
C22      C      0.519370000000     0.267220000000     0.807230000000     0.474552   
C23      C      0.016900000000     0.332790000000     0.862270000000     0.473027   
C24      C      0.016050000000     0.211960000000     0.873360000000     0.472395   
C25      C      0.264520000000     0.465350000000     0.905370000000     0.473667   
C26      C      0.263700000000     0.086550000000     0.902750000000     0.472395   
C27      C      0.264290000000     0.026510000000     0.965350000000     0.471115   
C28      C      0.264550000000     0.025530000000     0.843830000000     0.472158   
C29      C      0.261950000000     0.337490000000     0.887040000000     0.474047   
C30      C      0.262600000000     0.217510000000     0.904460000000     0.473757   
C31      C      0.262960000000     0.285410000000     0.955530000000     0.475786   
C32      C      0.261030000000     0.269610000000     0.835290000000     0.475196   
C33      C      0.001630000000     0.508050000000     0.313120000000     0.472554   
C34      C      0.007600000000     0.510270000000     0.434400000000     0.473492   
C35      C      0.066350000000     0.007490000000     0.371140000000     0.466445   
C36      C      0.443600000000     0.011160000000     0.377090000000     0.467018   
C37      C      0.454870000000     0.244840000000     0.369330000000     0.473729   
C38      C      0.077220000000     0.248300000000     0.360520000000     0.475358   
C39      C      0.012340000000     0.246300000000     0.304630000000     0.476002   
C40      C      0.021520000000     0.246760000000     0.425510000000     0.474562   
C41      C      0.251710000000     0.011970000000     0.466200000000     0.468144   
C42      C      0.261220000000     0.011210000000     0.345180000000     0.469236   
C43      C      0.317270000000     0.513870000000     0.409580000000     0.473106   
C44      C      0.194760000000     0.508880000000     0.400700000000     0.471455   
C45      C      0.261520000000     0.246360000000     0.453440000000     0.472978   
C46      C      0.265610000000     0.247080000000     0.332070000000     0.472944   
C47      C      0.203150000000     0.248900000000     0.390610000000     0.475558   
C48      C      0.325700000000     0.244250000000     0.394890000000     0.473613   
C49      C      0.030900000000     0.512700000000     0.562880000000     0.474077   
C50      C      0.029380000000     0.516800000000     0.684150000000     0.474416   
C51      C      0.091240000000     0.016770000000     0.624320000000     0.468748   
C52      C      0.468520000000     0.012230000000     0.623270000000     0.468135   
C53      C      0.515130000000     0.247900000000     0.556550000000     0.47456    
C54      C      0.515440000000     0.249930000000     0.677820000000     0.475144   
C55      C      0.454870000000     0.246490000000     0.617360000000     0.475519   
C56      C      0.077470000000     0.251190000000     0.617050000000     0.474192   
C57      C      0.280110000000     0.013830000000     0.714860000000     0.468256   
C58      C      0.278140000000     0.013650000000     0.593390000000     0.46752    
C59      C      0.340790000000     0.512370000000     0.653030000000     0.473061   
C60      C      0.218030000000     0.515550000000     0.654960000000     0.474109   
C61      C      0.205850000000     0.250890000000     0.644350000000     0.473956   
C62      C      0.328470000000     0.247540000000     0.646910000000     0.475451   
C63      C      0.266870000000     0.250670000000     0.706110000000     0.475196   
C64      C      0.269210000000     0.247790000000     0.584820000000     0.473197   
C65      C      0.380640000000     0.276620000000     0.645580000000    -0.00732586 
C66      C      0.380030000000     0.216760000000     0.648660000000    -0.0084102  
C67      C      0.402390000000     0.275020000000     0.616150000000    -0.00784188 
C68      C      0.403710000000     0.215160000000     0.620330000000    -0.00878906 
C69      C      0.129990000000     0.222630000000     0.615260000000    -0.00797953 
C70      C      0.128770000000     0.282520000000     0.617850000000    -0.00874924 
C71      C      0.153640000000     0.221770000000     0.643280000000    -0.00780325 
C72      C      0.154280000000     0.281780000000     0.644660000000    -0.00885946 
C73      C      0.392860000000     0.041760000000     0.650580000000    -0.00831188 
C74      C      0.392580000000     0.481810000000     0.653010000000    -0.00892397 
C75      C      0.415830000000     0.040590000000     0.621990000000    -0.00854293 
C76      C      0.417340000000     0.480760000000     0.625530000000    -0.00878257 
C77      C      0.143630000000     0.487930000000     0.624080000000    -0.00794942 
C78      C      0.142620000000     0.047830000000     0.627260000000    -0.0092884  
C79      C      0.165700000000     0.486650000000     0.653330000000    -0.00769558 
C80      C      0.166540000000     0.046560000000     0.655450000000    -0.00912292 
C81      C      0.275770000000     0.276930000000     0.533550000000    -0.00829841 
C82      C      0.276040000000     0.216870000000     0.534480000000    -0.00864001 
C83      C      0.253890000000     0.276390000000     0.504060000000    -0.00819637 
C84      C      0.254800000000     0.216370000000     0.504380000000    -0.00856238 
C85      C      0.276380000000     0.043340000000     0.541820000000    -0.0090346  
C86      C      0.277710000000     0.483250000000     0.542250000000    -0.00863492 
C87      C      0.248770000000     0.042400000000     0.517320000000    -0.00875887 
C88      C      0.249960000000     0.482570000000     0.517930000000    -0.00830724 
C89      C      0.030370000000     0.216990000000     0.476200000000    -0.00809324 
C90      C      0.530750000000     0.276930000000     0.475820000000    -0.00813174 
C91      C      0.008950000000     0.217200000000     0.506100000000    -0.00868746 
C92      C      0.509030000000     0.277360000000     0.505420000000    -0.00818458 
C93      C      0.378220000000     0.272560000000     0.399420000000    -0.008183   
C94      C      0.376960000000     0.212850000000     0.395380000000    -0.00867585 
C95      C      0.402840000000     0.274110000000     0.372260000000    -0.00779374 
C96      C      0.403310000000     0.214020000000     0.369410000000    -0.0089532  
C97      C      0.150820000000     0.220120000000     0.389280000000    -0.007828   
C98      C      0.152020000000     0.280190000000     0.386750000000    -0.00885081 
C99      C      0.129470000000     0.219390000000     0.359520000000    -0.00725782 
C100     C      0.128690000000     0.279180000000     0.358110000000    -0.00841729 
C101     C      0.033990000000     0.541290000000     0.510840000000    -0.00806174 
C102     C      0.533030000000     0.481380000000     0.512320000000    -0.0084457  
C103     C      0.007660000000     0.041220000000     0.485100000000    -0.00910731 
C104     C      0.506960000000     0.981130000000     0.486240000000    -0.0058925  
C105     C      0.392270000000     0.042430000000     0.378650000000    -0.00947506 
C106     C      0.391450000000     0.482510000000     0.383490000000    -0.00797993 
C107     C      0.368790000000     0.044820000000     0.407160000000    -0.00925495 
C108     C      0.369770000000     0.485320000000     0.412970000000    -0.00811484 
C109     C      0.143810000000     0.477110000000     0.397150000000    -0.0092848  
C110     C      0.142170000000     0.037240000000     0.397630000000    -0.00892899 
C111     C      0.118210000000     0.476870000000     0.370340000000    -0.00903997 
C112     C      0.118600000000     0.036670000000     0.369490000000    -0.00813215 
C113     C      0.250230000000     0.229530000000     0.758740000000    -0.00728716 
C114     C      0.294340000000     0.270890000000     0.754060000000    -0.00674381 
C115     C      0.235180000000     0.248370000000     0.786510000000    -0.00706807 
C116     C      0.280970000000     0.288320000000     0.783300000000    -0.00749814 
C117     C      0.261310000000     0.490030000000     0.765600000000    -0.00761321 
C118     C      0.302040000000     0.035040000000     0.765460000000    -0.00727429 
C119     C      0.242370000000     0.506880000000     0.792310000000    -0.00729235 
C120     C      0.284930000000     0.050070000000     0.794250000000    -0.00777949 
C121     C      0.292330000000     0.388110000000     0.878810000000    -0.00786359 
C122     C      0.231890000000     0.388740000000     0.882930000000    -0.00816386 
C123     C      0.294730000000     0.414000000000     0.904630000000    -0.00870487 
C124     C      0.233950000000     0.414390000000     0.908980000000    -0.00853224 
C125     C      0.293730000000     0.137310000000     0.895520000000    -0.00847953 
C126     C      0.232730000000     0.136840000000     0.896120000000    -0.00834518 
C127     C      0.293530000000     0.167870000000     0.915600000000    -0.00814014 
C128     C      0.232900000000     0.167310000000     0.916370000000    -0.00841033 
C129     C      0.487380000000     0.269650000000     0.725670000000    -0.00679673 
C130     C      0.531840000000     0.228630000000     0.730450000000    -0.00708422 
C131     C      0.000350000000     0.286960000000     0.755180000000    -0.00797744 
C132     C      0.046480000000     0.247430000000     0.758470000000    -0.00745787 
C133     C      0.052650000000     0.499390000000     0.735530000000    -0.00781943 
C134     C      0.509670000000     0.042340000000     0.733390000000    -0.00720564 
C135     C      0.037800000000     0.486720000000     0.766700000000    -0.00747632 
C136     C      0.492280000000     0.026610000000     0.761560000000    -0.00735047 
C137     C      0.047030000000     0.384210000000     0.861540000000    -0.00856223 
C138     C      0.486550000000     0.383690000000     0.855810000000    -0.00815591 
C139     C      0.044090000000     0.409730000000     0.887700000000    -0.0084303  
C140     C      0.483660000000     0.409280000000     0.881890000000    -0.00862405 
C141     C      0.046380000000     0.131580000000     0.860390000000    -0.00855705 
C142     C      0.485680000000     0.132060000000     0.857910000000    -0.0083831  
C143     C      0.045700000000     0.161050000000     0.882150000000    -0.00872662 
C144     C      0.484940000000     0.161550000000     0.879600000000    -0.00856574 
C145     C      0.249620000000     0.217870000000     0.249550000000    -0.0081079  
C146     C      0.295710000000     0.257380000000     0.250830000000    -0.00721171 
C147     C      0.238780000000     0.229400000000     0.282760000000    -0.00822446 
C148     C      0.281880000000     0.272150000000     0.281360000000    -0.00681319 
C149     C      0.293810000000     0.287060000000     0.006480000000    -0.00864615 
C150     C      0.233390000000     0.288900000000     0.007250000000    -0.00877809 
C151     C      0.293400000000     0.257190000000     0.027580000000    -0.00774965 
C152     C      0.232450000000     0.259340000000     0.028920000000    -0.00830492 
C153     C      0.248090000000     0.034990000000     0.292970000000    -0.00719019 
C154     C      0.290360000000     0.491750000000     0.297620000000    -0.0075223  
C155     C      0.233760000000     0.018200000000     0.263770000000    -0.00732622 
C156     C      0.279150000000     0.477710000000     0.265550000000    -0.00808656 
C157     C      0.295230000000     0.000430000000     0.041930000000    -0.0130627  
C158     C      0.234510000000     0.498810000000     0.041220000000    -0.00845095 
C159     C      0.294680000000     0.027250000000     0.016850000000    -0.00842664 
C160     C      0.233960000000     0.526080000000     0.016770000000    -0.00879064 
C161     C      0.291450000000     0.388870000000     0.162440000000    -0.00751919 
C162     C      0.230760000000     0.388740000000     0.162200000000    -0.00855197 
C163     C      0.291930000000     0.361030000000     0.139010000000    -0.00795078 
C164     C      0.231000000000     0.359200000000     0.140390000000    -0.00857019 
C165     C      0.238370000000     0.137550000000     0.126790000000    -0.00773659 
C166     C      0.298730000000     0.137630000000     0.132730000000    -0.00848524 
C167     C      0.235470000000     0.112260000000     0.152890000000    -0.00771228 
C168     C      0.296180000000     0.110960000000     0.157830000000    -0.0086033  
C169     C      0.475610000000     0.251910000000     0.226410000000    -0.00752698 
C170     C      0.021180000000     0.211890000000     0.224510000000    -0.00677951 
C171     C      0.492240000000     0.269220000000     0.254190000000    -0.00672363 
C172     C      0.036080000000     0.226990000000     0.254390000000    -0.00730574 
C173     C      0.042180000000     0.257630000000     0.005660000000    -0.00931208 
C174     C      0.481170000000     0.255700000000     0.002810000000    -0.00911087 
C175     C      0.042150000000     0.284080000000     0.980320000000    -0.00766882 
C176     C      0.481740000000     0.282450000000     0.977900000000    -0.0073524  
C177     C      0.475230000000     0.487430000000     0.264360000000    -0.00776251 
C178     C      0.518170000000     0.030180000000     0.261070000000    -0.00516058 
C179     C      0.988620000000     0.472050000000     0.233710000000    -0.00748899 
C180     C      0.034420000000     0.012040000000     0.233650000000    -0.0160566  
C181     C      0.541570000000     0.030770000000     0.986920000000    -0.00592172 
C182     C      0.481080000000     0.531590000000     0.985360000000    -0.00765602 
C183     C      0.040750000000     0.003280000000     0.011050000000    -0.0147932  
C184     C      0.979780000000     0.504560000000     0.010140000000    -0.00952565 
C185     C      0.478790000000     0.357790000000     0.130300000000    -0.00788157 
C186     C      0.039290000000     0.356030000000     0.135020000000    -0.00873462 
C187     C      0.481330000000     0.386710000000     0.108230000000    -0.0083253  
C188     C      0.041870000000     0.386370000000     0.114390000000    -0.00911984 
C189     C      0.473580000000     0.135160000000     0.104720000000    -0.00891111 
C190     C      0.034080000000     0.135220000000     0.100610000000    -0.00798465 
C191     C      0.475460000000     0.108640000000     0.130140000000    -0.00874932 
C192     C      0.036210000000     0.110150000000     0.127070000000    -0.00791478 
C193     C      0.510820000000     0.937220000000     0.118400000000     0.472914   
C194     C      0.507280000000     0.558250000000     0.125920000000     0.473194   
C195     C      0.009450000000     0.494600000000     0.183110000000     0.472588   
C196     C      0.009550000000     0.501500000000     0.061820000000     0.472497   
C197     C      0.007960000000     0.806500000000     0.123400000000     0.472592   
C198     C      0.004440000000     0.686230000000     0.108000000000     0.47362    
C199     C      0.502390000000     0.738840000000     0.175400000000     0.47607    
C200     C      0.509250000000     0.753530000000     0.055230000000     0.474552   
C201     C      0.261360000000     0.939530000000     0.155680000000     0.474535   
C202     C      0.264590000000     0.560550000000     0.153550000000     0.475019   
C203     C      0.264150000000     0.499630000000     0.093030000000     0.472291   
C204     C      0.260800000000     0.500630000000     0.214450000000     0.474008   
C205     C      0.263990000000     0.753280000000     0.079260000000     0.475264   
C206     C      0.268030000000     0.744580000000     0.200270000000     0.473338   
C207     C      0.267660000000     0.688540000000     0.135080000000     0.475443   
C208     C      0.263410000000     0.809290000000     0.142930000000     0.474564   
C209     C      0.512740000000     0.527350000000     0.934810000000     0.474133   
C210     C      0.515770000000     0.514160000000     0.814180000000     0.474395   
C211     C      0.015250000000     0.581250000000     0.867470000000     0.472038   
C212     C      0.013900000000     0.960640000000     0.880720000000     0.47227    
C213     C      0.514090000000     0.778190000000     0.927950000000     0.47529    
C214     C      0.519370000000     0.767220000000     0.807230000000     0.474552   
C215     C      0.016900000000     0.832790000000     0.862270000000     0.473038   
C216     C      0.016050000000     0.711950000000     0.873360000000     0.472287   
C217     C      0.264520000000     0.965350000000     0.905370000000     0.473031   
C218     C      0.263700000000     0.586550000000     0.902750000000     0.472751   
C219     C      0.264290000000     0.526510000000     0.965350000000     0.47204    
C220     C      0.264550000000     0.525530000000     0.843830000000     0.473403   
C221     C      0.261950000000     0.837480000000     0.887040000000     0.474143   
C222     C      0.262600000000     0.717510000000     0.904460000000     0.473744   
C223     C      0.262960000000     0.785410000000     0.955530000000     0.475788   
C224     C      0.261030000000     0.769620000000     0.835290000000     0.475197   
C225     C      0.001630000000     0.008050000000     0.313120000000     0.467534   
C226     C      0.007600000000     0.010270000000     0.434400000000     0.468205   
C227     C      0.066350000000     0.507490000000     0.371140000000     0.471718   
C228     C      0.443600000000     0.511160000000     0.377090000000     0.47229    
C229     C      0.454870000000     0.744840000000     0.369330000000     0.473719   
C230     C      0.077220000000     0.748300000000     0.360520000000     0.475346   
C231     C      0.012340000000     0.746300000000     0.304630000000     0.476308   
C232     C      0.021520000000     0.746760000000     0.425510000000     0.474549   
C233     C      0.251710000000     0.511970000000     0.466200000000     0.473443   
C234     C      0.261220000000     0.511210000000     0.345180000000     0.474283   
C235     C      0.317270000000     0.013870000000     0.409580000000     0.467513   
C236     C      0.194760000000     0.008880000000     0.400700000000     0.465897   
C237     C      0.261520000000     0.746360000000     0.453440000000     0.47296    
C238     C      0.265610000000     0.747080000000     0.332070000000     0.472928   
C239     C      0.203150000000     0.748900000000     0.390610000000     0.475544   
C240     C      0.325700000000     0.744250000000     0.394890000000     0.473596   
C241     C      0.030900000000     0.012700000000     0.562880000000     0.46878    
C242     C      0.029380000000     0.016800000000     0.684150000000     0.469354   
C243     C      0.091240000000     0.516770000000     0.624320000000     0.474036   
C244     C      0.468520000000     0.512230000000     0.623270000000     0.473406   
C245     C      0.515130000000     0.747900000000     0.556550000000     0.474541   
C246     C      0.515440000000     0.749930000000     0.677820000000     0.475127   
C247     C      0.454870000000     0.746490000000     0.617360000000     0.475501   
C248     C      0.077470000000     0.751190000000     0.617050000000     0.474174   
C249     C      0.280110000000     0.513830000000     0.714860000000     0.473392   
C250     C      0.278140000000     0.513650000000     0.593390000000     0.472866   
C251     C      0.340790000000     0.012370000000     0.653030000000     0.467445   
C252     C      0.218030000000     0.015550000000     0.654960000000     0.468758   
C253     C      0.205850000000     0.750900000000     0.644350000000     0.474247   
C254     C      0.328470000000     0.747540000000     0.646910000000     0.47544    
C255     C      0.266870000000     0.750680000000     0.706110000000     0.475187   
C256     C      0.269210000000     0.747790000000     0.584820000000     0.473184   
C257     C      0.380640000000     0.776620000000     0.645580000000    -0.00734912 
C258     C      0.380030000000     0.716760000000     0.648660000000    -0.00842062 
C259     C      0.402390000000     0.775020000000     0.616150000000    -0.0078571  
C260     C      0.403710000000     0.715160000000     0.620330000000    -0.00880256 
C261     C      0.129990000000     0.722630000000     0.615260000000    -0.00799807 
C262     C      0.128770000000     0.782520000000     0.617850000000    -0.00876149 
C263     C      0.153640000000     0.721770000000     0.643280000000    -0.00779018 
C264     C      0.154280000000     0.781780000000     0.644660000000    -0.00886829 
C265     C      0.392860000000     0.541760000000     0.650580000000    -0.00790012 
C266     C      0.392580000000     0.981810000000     0.653010000000    -0.00644379 
C267     C      0.415830000000     0.540590000000     0.621990000000    -0.00820912 
C268     C      0.417340000000     0.980760000000     0.625530000000    -0.00622174 
C269     C      0.143630000000     0.987930000000     0.624080000000    -0.00543753 
C270     C      0.142620000000     0.547830000000     0.627260000000    -0.00890165 
C271     C      0.165700000000     0.986650000000     0.653330000000    -0.00519214 
C272     C      0.166540000000     0.546560000000     0.655450000000    -0.00868269 
C273     C      0.275770000000     0.776930000000     0.533550000000    -0.00830995 
C274     C      0.276040000000     0.716870000000     0.534480000000    -0.00865135 
C275     C      0.253890000000     0.776390000000     0.504060000000    -0.00820806 
C276     C      0.254800000000     0.716370000000     0.504380000000    -0.00857327 
C277     C      0.276380000000     0.543340000000     0.541820000000    -0.00863475 
C278     C      0.277710000000     0.983250000000     0.542250000000    -0.00613274 
C279     C      0.248770000000     0.542400000000     0.517320000000    -0.0083713  
C280     C      0.249960000000     0.982570000000     0.517930000000    -0.00578951 
C281     C      0.030370000000     0.716990000000     0.476200000000    -0.00810297 
C282     C      0.530750000000     0.776930000000     0.475820000000    -0.00814289 
C283     C      0.008950000000     0.717200000000     0.506100000000    -0.00869981 
C284     C      0.509030000000     0.777360000000     0.505420000000    -0.00819712 
C285     C      0.378220000000     0.772560000000     0.399420000000    -0.00815592 
C286     C      0.376960000000     0.712850000000     0.395380000000    -0.00868335 
C287     C      0.402840000000     0.774120000000     0.372260000000    -0.00788717 
C288     C      0.403310000000     0.714020000000     0.369410000000    -0.00896747 
C289     C      0.150820000000     0.720120000000     0.389280000000    -0.00785729 
C290     C      0.152020000000     0.780180000000     0.386750000000    -0.00871597 
C291     C      0.129470000000     0.719390000000     0.359520000000    -0.00720301 
C292     C      0.128690000000     0.779180000000     0.358110000000    -0.00855187 
C293     C      0.033990000000     0.041290000000     0.510840000000    -0.00845083 
C294     C      0.533030000000     0.981380000000     0.512320000000    -0.0059286  
C295     C      0.007660000000     0.541220000000     0.485100000000    -0.00872101 
C296     C      0.506960000000     0.481130000000     0.486240000000    -0.00840209 
C297     C      0.392270000000     0.542430000000     0.378650000000    -0.00907677 
C298     C      0.391450000000     0.982510000000     0.383490000000    -0.00547406 
C299     C      0.368790000000     0.544820000000     0.407160000000    -0.00884763 
C300     C      0.369770000000     0.985320000000     0.412970000000    -0.00560718 
C301     C      0.143810000000     0.977110000000     0.397150000000    -0.00675302 
C302     C      0.142170000000     0.537240000000     0.397630000000    -0.00856265 
C303     C      0.118210000000     0.976870000000     0.370340000000    -0.00654516 
C304     C      0.118600000000     0.536670000000     0.369490000000    -0.00774974 
C305     C      0.250230000000     0.729530000000     0.758740000000    -0.00728738 
C306     C      0.294340000000     0.770890000000     0.754060000000    -0.00674714 
C307     C      0.235180000000     0.748370000000     0.786510000000    -0.00707696 
C308     C      0.280970000000     0.788320000000     0.783300000000    -0.007532   
C309     C      0.261310000000     0.990030000000     0.765600000000     0.00118415 
C310     C      0.302040000000     0.535040000000     0.765460000000    -0.00747267 
C311     C      0.242370000000     0.006880000000     0.792310000000    -0.0174759  
C312     C      0.284930000000     0.550070000000     0.794250000000    -0.00714735 
C313     C      0.292330000000     0.888110000000     0.878810000000    -0.00787827 
C314     C      0.231890000000     0.888740000000     0.882930000000    -0.00815459 
C315     C      0.294730000000     0.914000000000     0.904630000000    -0.00872831 
C316     C      0.233950000000     0.914390000000     0.908980000000    -0.00858323 
C317     C      0.293730000000     0.637310000000     0.895520000000    -0.0084754  
C318     C      0.232730000000     0.636840000000     0.896120000000    -0.00834329 
C319     C      0.293530000000     0.667870000000     0.915600000000    -0.00815438 
C320     C      0.232900000000     0.667310000000     0.916370000000    -0.00842332 
C321     C      0.487380000000     0.769650000000     0.725670000000    -0.00682012 
C322     C      0.531840000000     0.728630000000     0.730450000000    -0.00710652 
C323     C      0.000350000000     0.786960000000     0.755180000000    -0.0079471  
C324     C      0.046480000000     0.747440000000     0.758470000000    -0.00745786 
C325     C      0.052650000000     0.999390000000     0.735530000000     2.02647e-05
C326     C      0.509670000000     0.542340000000     0.733390000000    -0.00692754 
C327     C      0.037800000000     0.986720000000     0.766700000000    -0.0060934  
C328     C      0.492280000000     0.526610000000     0.761560000000    -0.00713779 
C329     C      0.047030000000     0.884210000000     0.861540000000    -0.00852907 
C330     C      0.486550000000     0.883690000000     0.855810000000    -0.00815927 
C331     C      0.044090000000     0.909720000000     0.887700000000    -0.00850087 
C332     C      0.483660000000     0.909280000000     0.881890000000    -0.00864801 
C333     C      0.046380000000     0.631580000000     0.860390000000    -0.00856143 
C334     C      0.485680000000     0.632060000000     0.857910000000    -0.00838499 
C335     C      0.045700000000     0.661050000000     0.882150000000    -0.00872332 
C336     C      0.484940000000     0.661550000000     0.879600000000    -0.00856369 
C337     C      0.249620000000     0.717870000000     0.249550000000    -0.00811973 
C338     C      0.295710000000     0.757380000000     0.250830000000    -0.00719635 
C339     C      0.238780000000     0.729400000000     0.282760000000    -0.00823353 
C340     C      0.281880000000     0.772150000000     0.281360000000    -0.00683661 
C341     C      0.293810000000     0.787060000000     0.006480000000    -0.00873236 
C342     C      0.233390000000     0.788900000000     0.007250000000    -0.00886842 
C343     C      0.293400000000     0.757190000000     0.027580000000    -0.00772994 
C344     C      0.232450000000     0.759340000000     0.028920000000    -0.00828179 
C345     C      0.248090000000     0.534990000000     0.292970000000    -0.00696606 
C346     C      0.290360000000     0.991750000000     0.297620000000     0.000290448
C347     C      0.233760000000     0.518200000000     0.263770000000    -0.00689808 
C348     C      0.279150000000     0.977710000000     0.265550000000    -0.00696997 
C349     C      0.295230000000     0.500430000000     0.041930000000    -0.00860197 
C350     C      0.234510000000     0.998810000000     0.041220000000     0.00436036 
C351     C      0.294680000000     0.527250000000     0.016850000000    -0.00898302 
C352     C      0.233960000000     0.026080000000     0.016770000000    -0.0151458  
C353     C      0.291450000000     0.888870000000     0.162440000000    -0.00747471 
C354     C      0.230760000000     0.888740000000     0.162200000000    -0.0086125  
C355     C      0.291930000000     0.861020000000     0.139010000000    -0.00794917 
C356     C      0.231000000000     0.859210000000     0.140390000000    -0.00857357 
C357     C      0.238370000000     0.637550000000     0.126790000000    -0.00775602 
C358     C      0.298730000000     0.637630000000     0.132730000000    -0.00845541 
C359     C      0.235470000000     0.612260000000     0.152890000000    -0.00766969 
C360     C      0.296180000000     0.610960000000     0.157830000000    -0.00869621 
C361     C      0.475610000000     0.751910000000     0.226410000000    -0.0075265  
C362     C      0.021180000000     0.711890000000     0.224510000000    -0.00677273 
C363     C      0.492240000000     0.769220000000     0.254190000000    -0.00672443 
C364     C      0.036080000000     0.726990000000     0.254390000000    -0.00730595 
C365     C      0.042180000000     0.757630000000     0.005660000000    -0.00938285 
C366     C      0.481170000000     0.755700000000     0.002810000000    -0.00918768 
C367     C      0.042150000000     0.784080000000     0.980320000000    -0.00765086 
C368     C      0.481740000000     0.782450000000     0.977900000000    -0.00733458 
C369     C      0.475230000000     0.987430000000     0.264360000000     0.00084698 
C370     C      0.518170000000     0.530180000000     0.261070000000    -0.00719609 
C371     C      0.988620000000     0.972050000000     0.233710000000    -0.009555   
C372     C      0.034420000000     0.512040000000     0.233650000000    -0.00718509 
C373     C      0.541570000000     0.530770000000     0.986920000000    -0.00714707 
C374     C      0.481080000000     0.031590000000     0.985360000000    -0.00636742 
C375     C      0.040750000000     0.503270000000     0.011050000000    -0.00946183 
C376     C      0.979780000000     0.004560000000     0.010140000000    -0.0149104  
C377     C      0.478790000000     0.857790000000     0.130300000000    -0.00788067 
C378     C      0.039290000000     0.856030000000     0.135020000000    -0.00874101 
C379     C      0.481330000000     0.886710000000     0.108230000000    -0.00831475 
C380     C      0.041870000000     0.886370000000     0.114390000000    -0.00910493 
C381     C      0.473580000000     0.635160000000     0.104720000000    -0.00888177 
C382     C      0.034080000000     0.635220000000     0.100610000000    -0.00796083 
C383     C      0.475460000000     0.608640000000     0.130140000000    -0.00885746 
C384     C      0.036210000000     0.610150000000     0.127070000000    -0.00801664 
C385     C      0.010820000000     0.437220000000     0.118400000000     0.471774   
C386     C      0.007280000000     0.058250000000     0.125920000000     0.473824   
C387     C      0.509450000000     0.994600000000     0.183110000000     0.473834   
C388     C      0.509550000000     0.001490000000     0.061820000000     0.47369    
C389     C      0.507960000000     0.306500000000     0.123400000000     0.472885   
C390     C      0.504430000000     0.186230000000     0.108000000000     0.47392    
C391     C      0.002390000000     0.238850000000     0.175400000000     0.475794   
C392     C      0.009250000000     0.253530000000     0.055230000000     0.474283   
C393     C      0.761360000000     0.439530000000     0.155680000000     0.474582   
C394     C      0.764590000000     0.060550000000     0.153550000000     0.475197   
C395     C      0.764150000000     0.999630000000     0.093030000000     0.481588   
C396     C      0.760800000000     0.000630000000     0.214450000000     0.468669   
C397     C      0.763990000000     0.253280000000     0.079260000000     0.475261   
C398     C      0.768030000000     0.244580000000     0.200270000000     0.473338   
C399     C      0.767670000000     0.188540000000     0.135080000000     0.475437   
C400     C      0.763410000000     0.309290000000     0.142930000000     0.474249   
C401     C      0.012740000000     0.027350000000     0.934810000000     0.473108   
C402     C      0.015770000000     0.014160000000     0.814180000000     0.473308   
C403     C      0.515250000000     0.081250000000     0.867470000000     0.471979   
C404     C      0.513900000000     0.460640000000     0.880720000000     0.473204   
C405     C      0.014090000000     0.278190000000     0.927950000000     0.474694   
C406     C      0.019370000000     0.267220000000     0.807230000000     0.474234   
C407     C      0.516900000000     0.332790000000     0.862270000000     0.473326   
C408     C      0.516050000000     0.211960000000     0.873360000000     0.472692   
C409     C      0.764520000000     0.465350000000     0.905370000000     0.473665   
C410     C      0.763700000000     0.086550000000     0.902750000000     0.472395   
C411     C      0.764290000000     0.026510000000     0.965350000000     0.471114   
C412     C      0.764550000000     0.025530000000     0.843830000000     0.472155   
C413     C      0.761950000000     0.337490000000     0.887040000000     0.474045   
C414     C      0.762600000000     0.217510000000     0.904460000000     0.473754   
C415     C      0.762960000000     0.285410000000     0.955530000000     0.475784   
C416     C      0.761030000000     0.269610000000     0.835290000000     0.475196   
C417     C      0.501630000000     0.508050000000     0.313120000000     0.473103   
C418     C      0.507600000000     0.510270000000     0.434400000000     0.473565   
C419     C      0.566350000000     0.007490000000     0.371140000000     0.466475   
C420     C      0.943600000000     0.011160000000     0.377090000000     0.467093   
C421     C      0.954870000000     0.244840000000     0.369330000000     0.473749   
C422     C      0.577210000000     0.248300000000     0.360520000000     0.475603   
C423     C      0.512340000000     0.246300000000     0.304630000000     0.476047   
C424     C      0.521520000000     0.246760000000     0.425510000000     0.474613   
C425     C      0.751710000000     0.011970000000     0.466200000000     0.468145   
C426     C      0.761220000000     0.011210000000     0.345180000000     0.469285   
C427     C      0.817270000000     0.513870000000     0.409580000000     0.473107   
C428     C      0.694760000000     0.508880000000     0.400700000000     0.47145    
C429     C      0.761520000000     0.246360000000     0.453440000000     0.472978   
C430     C      0.765610000000     0.247080000000     0.332070000000     0.472944   
C431     C      0.703150000000     0.248900000000     0.390610000000     0.475557   
C432     C      0.825700000000     0.244250000000     0.394890000000     0.473739   
C433     C      0.530900000000     0.512700000000     0.562880000000     0.474117   
C434     C      0.529380000000     0.516800000000     0.684150000000     0.474484   
C435     C      0.591240000000     0.016770000000     0.624320000000     0.468767   
C436     C      0.968520000000     0.012230000000     0.623270000000     0.468098   
C437     C      0.015130000000     0.247900000000     0.556550000000     0.474507   
C438     C      0.015440000000     0.249930000000     0.677820000000     0.47511    
C439     C      0.954870000000     0.246490000000     0.617360000000     0.475483   
C440     C      0.577470000000     0.251190000000     0.617050000000     0.474211   
C441     C      0.780110000000     0.013830000000     0.714860000000     0.468251   
C442     C      0.778130000000     0.013650000000     0.593390000000     0.467527   
C443     C      0.840790000000     0.512370000000     0.653030000000     0.473104   
C444     C      0.718030000000     0.515550000000     0.654960000000     0.474059   
C445     C      0.705850000000     0.250890000000     0.644350000000     0.473955   
C446     C      0.828470000000     0.247540000000     0.646910000000     0.47532    
C447     C      0.766870000000     0.250670000000     0.706110000000     0.475151   
C448     C      0.769210000000     0.247790000000     0.584820000000     0.473194   
C449     C      0.880640000000     0.276620000000     0.645580000000    -0.00732603 
C450     C      0.880030000000     0.216760000000     0.648660000000    -0.00841987 
C451     C      0.902390000000     0.275020000000     0.616150000000    -0.00784372 
C452     C      0.903710000000     0.215160000000     0.620330000000    -0.00877104 
C453     C      0.629980000000     0.222630000000     0.615260000000    -0.00794328 
C454     C      0.628770000000     0.282520000000     0.617850000000    -0.00874887 
C455     C      0.653640000000     0.221770000000     0.643280000000    -0.0078215  
C456     C      0.654280000000     0.281780000000     0.644660000000    -0.00886163 
C457     C      0.892850000000     0.041760000000     0.650580000000    -0.00827701 
C458     C      0.892580000000     0.481810000000     0.653010000000    -0.00891908 
C459     C      0.915830000000     0.040590000000     0.621990000000    -0.00855434 
C460     C      0.917340000000     0.480760000000     0.625530000000    -0.00878676 
C461     C      0.643630000000     0.487930000000     0.624080000000    -0.00794792 
C462     C      0.642620000000     0.047830000000     0.627260000000    -0.00928783 
C463     C      0.665700000000     0.486650000000     0.653330000000    -0.00770186 
C464     C      0.666540000000     0.046560000000     0.655450000000    -0.00912588 
C465     C      0.775770000000     0.276930000000     0.533550000000    -0.00830033 
C466     C      0.776040000000     0.216870000000     0.534480000000    -0.00864198 
C467     C      0.753890000000     0.276390000000     0.504060000000    -0.00819623 
C468     C      0.754800000000     0.216370000000     0.504380000000    -0.00856223 
C469     C      0.776380000000     0.043340000000     0.541820000000    -0.00904906 
C470     C      0.777710000000     0.483250000000     0.542250000000    -0.00863671 
C471     C      0.748780000000     0.042400000000     0.517320000000    -0.00872361 
C472     C      0.749960000000     0.482570000000     0.517930000000    -0.00830679 
C473     C      0.530370000000     0.216990000000     0.476200000000    -0.0081757  
C474     C      0.030750000000     0.276930000000     0.475820000000    -0.00804702 
C475     C      0.508950000000     0.217200000000     0.506100000000    -0.0083715  
C476     C      0.009030000000     0.277360000000     0.505420000000    -0.00850107 
C477     C      0.878210000000     0.272560000000     0.399420000000    -0.00814111 
C478     C      0.876970000000     0.212850000000     0.395380000000    -0.00870316 
C479     C      0.902840000000     0.274110000000     0.372260000000    -0.00781283 
C480     C      0.903310000000     0.214020000000     0.369410000000    -0.00893803 
C481     C      0.650820000000     0.220120000000     0.389280000000    -0.0078251  
C482     C      0.652020000000     0.280190000000     0.386750000000    -0.008848   
C483     C      0.629470000000     0.219390000000     0.359520000000    -0.00727268 
C484     C      0.628690000000     0.279180000000     0.358110000000    -0.00843295 
C485     C      0.534000000000     0.541290000000     0.510840000000    -0.0081669  
C486     C      0.033030000000     0.481380000000     0.512320000000    -0.00840033 
C487     C      0.507660000000     0.041220000000     0.485100000000    -0.00881597 
C488     C      0.006960000000     0.981130000000     0.486240000000    -0.00619385 
C489     C      0.892270000000     0.042430000000     0.378650000000    -0.00947328 
C490     C      0.891450000000     0.482510000000     0.383490000000    -0.00797415 
C491     C      0.868790000000     0.044820000000     0.407160000000    -0.00926515 
C492     C      0.869770000000     0.485320000000     0.412970000000    -0.00811706 
C493     C      0.643810000000     0.477110000000     0.397150000000    -0.00928719 
C494     C      0.642170000000     0.037240000000     0.397630000000    -0.00893893 
C495     C      0.618210000000     0.476870000000     0.370340000000    -0.0090392  
C496     C      0.618600000000     0.036670000000     0.369490000000    -0.00811367 
C497     C      0.750230000000     0.229530000000     0.758740000000    -0.00729637 
C498     C      0.794340000000     0.270890000000     0.754060000000    -0.00674956 
C499     C      0.735180000000     0.248370000000     0.786510000000    -0.00704696 
C500     C      0.780970000000     0.288320000000     0.783300000000    -0.00749658 
C501     C      0.761310000000     0.490030000000     0.765600000000    -0.00761289 
C502     C      0.802040000000     0.035040000000     0.765460000000    -0.00725122 
C503     C      0.742370000000     0.506880000000     0.792310000000    -0.00729449 
C504     C      0.784940000000     0.050070000000     0.794250000000    -0.00783566 
C505     C      0.792330000000     0.388110000000     0.878810000000    -0.00786458 
C506     C      0.731890000000     0.388740000000     0.882930000000    -0.00816477 
C507     C      0.794730000000     0.414000000000     0.904630000000    -0.00870582 
C508     C      0.733950000000     0.414390000000     0.908980000000    -0.0085331  
C509     C      0.793720000000     0.137310000000     0.895520000000    -0.00835082 
C510     C      0.732730000000     0.136840000000     0.896120000000    -0.00838051 
C511     C      0.793530000000     0.167870000000     0.915600000000    -0.00819337 
C512     C      0.732900000000     0.167310000000     0.916370000000    -0.00840196 
C513     C      0.987380000000     0.269650000000     0.725670000000    -0.00630924 
C514     C      0.031840000000     0.228630000000     0.730450000000    -0.00706857 
C515     C      0.500350000000     0.286960000000     0.755180000000    -0.00739764 
C516     C      0.546480000000     0.247430000000     0.758470000000    -0.00744306 
C517     C      0.552650000000     0.499390000000     0.735530000000    -0.00778327 
C518     C      0.009670000000     0.042340000000     0.733390000000    -0.0077753  
C519     C      0.537800000000     0.486720000000     0.766700000000    -0.00748845 
C520     C      0.992280000000     0.026610000000     0.761560000000    -0.00685811 
C521     C      0.547030000000     0.384210000000     0.861540000000    -0.00853954 
C522     C      0.986550000000     0.383690000000     0.855810000000    -0.00803151 
C523     C      0.544090000000     0.409730000000     0.887700000000    -0.00841123 
C524     C      0.983660000000     0.409280000000     0.881890000000    -0.00844382 
C525     C      0.546380000000     0.131580000000     0.860390000000    -0.00853413 
C526     C      0.985680000000     0.132060000000     0.857910000000    -0.0082579  
C527     C      0.545700000000     0.161050000000     0.882150000000    -0.00870629 
C528     C      0.984940000000     0.161550000000     0.879600000000    -0.00838627 
C529     C      0.749620000000     0.217870000000     0.249550000000    -0.00810948 
C530     C      0.795710000000     0.257380000000     0.250830000000    -0.00721347 
C531     C      0.738780000000     0.229400000000     0.282760000000    -0.00822471 
C532     C      0.781880000000     0.272150000000     0.281360000000    -0.00681336 
C533     C      0.793810000000     0.287060000000     0.006480000000    -0.00864707 
C534     C      0.733390000000     0.288900000000     0.007250000000    -0.00877869 
C535     C      0.793400000000     0.257190000000     0.027580000000    -0.0077506  
C536     C      0.732450000000     0.259340000000     0.028920000000    -0.00830636 
C537     C      0.748090000000     0.034990000000     0.292970000000    -0.00718789 
C538     C      0.790360000000     0.491750000000     0.297620000000    -0.00751948 
C539     C      0.733760000000     0.018200000000     0.263770000000    -0.00733061 
C540     C      0.779150000000     0.477710000000     0.265550000000    -0.0080902  
C541     C      0.795230000000     0.000430000000     0.041930000000    -0.0130567  
C542     C      0.734510000000     0.498810000000     0.041220000000    -0.00843817 
C543     C      0.794680000000     0.027250000000     0.016850000000    -0.0084197  
C544     C      0.733960000000     0.526080000000     0.016770000000    -0.00879491 
C545     C      0.791450000000     0.388870000000     0.162440000000    -0.00751174 
C546     C      0.730760000000     0.388740000000     0.162200000000    -0.00850007 
C547     C      0.791930000000     0.361030000000     0.139010000000    -0.00797697 
C548     C      0.730990000000     0.359200000000     0.140390000000    -0.00870742 
C549     C      0.738370000000     0.137550000000     0.126790000000    -0.007725   
C550     C      0.798730000000     0.137630000000     0.132730000000    -0.0085358  
C551     C      0.735470000000     0.112260000000     0.152890000000    -0.00771855 
C552     C      0.796180000000     0.110960000000     0.157830000000    -0.00858958 
C553     C      0.975610000000     0.251910000000     0.226410000000    -0.00747093 
C554     C      0.521180000000     0.211890000000     0.224510000000    -0.00675423 
C555     C      0.992240000000     0.269220000000     0.254190000000    -0.00627038 
C556     C      0.536080000000     0.226990000000     0.254390000000    -0.00730356 
C557     C      0.542180000000     0.257630000000     0.005660000000    -0.00933266 
C558     C      0.981170000000     0.255700000000     0.002810000000    -0.00896603 
C559     C      0.542150000000     0.284080000000     0.980320000000    -0.00762297 
C560     C      0.981740000000     0.282450000000     0.977900000000    -0.00723074 
C561     C      0.975230000000     0.487430000000     0.264360000000    -0.00789269 
C562     C      0.018170000000     0.030180000000     0.261070000000    -0.00537281 
C563     C      0.488620000000     0.472050000000     0.233710000000    -0.00797561 
C564     C      0.534420000000     0.012040000000     0.233650000000    -0.0160943  
C565     C      0.041570000000     0.030770000000     0.986920000000    -0.00593665 
C566     C      0.981080000000     0.531590000000     0.985360000000    -0.00751338 
C567     C      0.540750000000     0.003280000000     0.011050000000    -0.0147561  
C568     C      0.479780000000     0.504560000000     0.010140000000    -0.00965321 
C569     C      0.978790000000     0.357790000000     0.130300000000    -0.00774269 
C570     C      0.539290000000     0.356030000000     0.135020000000    -0.00871277 
C571     C      0.981330000000     0.386710000000     0.108230000000    -0.0081872  
C572     C      0.541870000000     0.386370000000     0.114390000000    -0.00909629 
C573     C      0.973580000000     0.135160000000     0.104720000000    -0.00873901 
C574     C      0.534080000000     0.135220000000     0.100610000000    -0.00795805 
C575     C      0.975460000000     0.108640000000     0.130140000000    -0.00863575 
C576     C      0.536210000000     0.110150000000     0.127070000000    -0.00788558 
C577     C      0.010820000000     0.937220000000     0.118400000000     0.47261    
C578     C      0.007280000000     0.558250000000     0.125920000000     0.472586   
C579     C      0.509450000000     0.494600000000     0.183110000000     0.472877   
C580     C      0.509550000000     0.501500000000     0.061820000000     0.473111   
C581     C      0.507960000000     0.806500000000     0.123400000000     0.472886   
C582     C      0.504430000000     0.686230000000     0.108000000000     0.473906   
C583     C      0.002390000000     0.738840000000     0.175400000000     0.475774   
C584     C      0.009250000000     0.753530000000     0.055230000000     0.474259   
C585     C      0.761360000000     0.939530000000     0.155680000000     0.474497   
C586     C      0.764590000000     0.560550000000     0.153550000000     0.474982   
C587     C      0.764150000000     0.499630000000     0.093030000000     0.472562   
C588     C      0.760800000000     0.500630000000     0.214450000000     0.473968   
C589     C      0.763990000000     0.753280000000     0.079260000000     0.475256   
C590     C      0.768030000000     0.744580000000     0.200270000000     0.473331   
C591     C      0.767670000000     0.688540000000     0.135080000000     0.475426   
C592     C      0.763410000000     0.809290000000     0.142930000000     0.474249   
C593     C      0.012740000000     0.527350000000     0.934810000000     0.473839   
C594     C      0.015770000000     0.514160000000     0.814180000000     0.474111   
C595     C      0.515250000000     0.581250000000     0.867470000000     0.472333   
C596     C      0.513900000000     0.960640000000     0.880720000000     0.47256    
C597     C      0.014090000000     0.778190000000     0.927950000000     0.474685   
C598     C      0.019370000000     0.767220000000     0.807230000000     0.474234   
C599     C      0.516900000000     0.832790000000     0.862270000000     0.473337   
C600     C      0.516050000000     0.711950000000     0.873360000000     0.472584   
C601     C      0.764520000000     0.965350000000     0.905370000000     0.47303    
C602     C      0.763700000000     0.586550000000     0.902750000000     0.472751   
C603     C      0.764290000000     0.526510000000     0.965350000000     0.472039   
C604     C      0.764550000000     0.525530000000     0.843830000000     0.4734     
C605     C      0.761950000000     0.837480000000     0.887040000000     0.474142   
C606     C      0.762600000000     0.717510000000     0.904460000000     0.473742   
C607     C      0.762960000000     0.785410000000     0.955530000000     0.475786   
C608     C      0.761030000000     0.769620000000     0.835290000000     0.475197   
C609     C      0.501630000000     0.008050000000     0.313120000000     0.468081   
C610     C      0.507600000000     0.010270000000     0.434400000000     0.468277   
C611     C      0.566350000000     0.507490000000     0.371140000000     0.471749   
C612     C      0.943600000000     0.511160000000     0.377090000000     0.472365   
C613     C      0.954870000000     0.744840000000     0.369330000000     0.473739   
C614     C      0.577210000000     0.748300000000     0.360520000000     0.475591   
C615     C      0.512340000000     0.746300000000     0.304630000000     0.476353   
C616     C      0.521520000000     0.746760000000     0.425510000000     0.474599   
C617     C      0.751710000000     0.511970000000     0.466200000000     0.473443   
C618     C      0.761220000000     0.511210000000     0.345180000000     0.474332   
C619     C      0.817270000000     0.013870000000     0.409580000000     0.467515   
C620     C      0.694760000000     0.008880000000     0.400700000000     0.465892   
C621     C      0.761520000000     0.746360000000     0.453440000000     0.472959   
C622     C      0.765610000000     0.747080000000     0.332070000000     0.472928   
C623     C      0.703150000000     0.748900000000     0.390610000000     0.475543   
C624     C      0.825700000000     0.744250000000     0.394890000000     0.473722   
C625     C      0.530900000000     0.012700000000     0.562880000000     0.468819   
C626     C      0.529380000000     0.016800000000     0.684150000000     0.46942    
C627     C      0.591240000000     0.516770000000     0.624320000000     0.474055   
C628     C      0.968520000000     0.512230000000     0.623270000000     0.473369   
C629     C      0.015130000000     0.747900000000     0.556550000000     0.474488   
C630     C      0.015440000000     0.749930000000     0.677820000000     0.475092   
C631     C      0.954870000000     0.746490000000     0.617360000000     0.475464   
C632     C      0.577470000000     0.751190000000     0.617050000000     0.474193   
C633     C      0.780110000000     0.513830000000     0.714860000000     0.473387   
C634     C      0.778130000000     0.513650000000     0.593390000000     0.472873   
C635     C      0.840790000000     0.012370000000     0.653030000000     0.467488   
C636     C      0.718030000000     0.015550000000     0.654960000000     0.468709   
C637     C      0.705850000000     0.750900000000     0.644350000000     0.474246   
C638     C      0.828470000000     0.747540000000     0.646910000000     0.475309   
C639     C      0.766870000000     0.750680000000     0.706110000000     0.475142   
C640     C      0.769210000000     0.747790000000     0.584820000000     0.473181   
C641     C      0.880640000000     0.776620000000     0.645580000000    -0.00734929 
C642     C      0.880030000000     0.716760000000     0.648660000000    -0.00843029 
C643     C      0.902390000000     0.775020000000     0.616150000000    -0.00785892 
C644     C      0.903710000000     0.715160000000     0.620330000000    -0.00878454 
C645     C      0.629980000000     0.722630000000     0.615260000000    -0.00796182 
C646     C      0.628770000000     0.782520000000     0.617850000000    -0.00876112 
C647     C      0.653640000000     0.721770000000     0.643280000000    -0.00780844 
C648     C      0.654280000000     0.781780000000     0.644660000000    -0.00887046 
C649     C      0.892850000000     0.541760000000     0.650580000000    -0.00786552 
C650     C      0.892580000000     0.981810000000     0.653010000000    -0.00643903 
C651     C      0.915830000000     0.540590000000     0.621990000000    -0.0082204  
C652     C      0.917340000000     0.980760000000     0.625530000000    -0.00622613 
C653     C      0.643630000000     0.987930000000     0.624080000000    -0.00543603 
C654     C      0.642620000000     0.547830000000     0.627260000000    -0.00890107 
C655     C      0.665700000000     0.986650000000     0.653330000000    -0.00519845 
C656     C      0.666540000000     0.546560000000     0.655450000000    -0.00868567 
C657     C      0.775770000000     0.776930000000     0.533550000000    -0.00831187 
C658     C      0.776040000000     0.716870000000     0.534480000000    -0.00865333 
C659     C      0.753890000000     0.776390000000     0.504060000000    -0.00820793 
C660     C      0.754800000000     0.716370000000     0.504380000000    -0.00857312 
C661     C      0.776380000000     0.543340000000     0.541820000000    -0.00864937 
C662     C      0.777710000000     0.983250000000     0.542250000000    -0.00613458 
C663     C      0.748780000000     0.542400000000     0.517320000000    -0.00833595 
C664     C      0.749960000000     0.982570000000     0.517930000000    -0.0057891  
C665     C      0.530370000000     0.716990000000     0.476200000000    -0.00818545 
C666     C      0.030750000000     0.776930000000     0.475820000000    -0.00805822 
C667     C      0.508950000000     0.717200000000     0.506100000000    -0.00838374 
C668     C      0.009030000000     0.777360000000     0.505420000000    -0.00851342 
C669     C      0.878210000000     0.772560000000     0.399420000000    -0.00811408 
C670     C      0.876970000000     0.712850000000     0.395380000000    -0.00871066 
C671     C      0.902840000000     0.774120000000     0.372260000000    -0.00790621 
C672     C      0.903310000000     0.714020000000     0.369410000000    -0.0089523  
C673     C      0.650820000000     0.720120000000     0.389280000000    -0.00785438 
C674     C      0.652020000000     0.780180000000     0.386750000000    -0.00871317 
C675     C      0.629470000000     0.719390000000     0.359520000000    -0.0072179  
C676     C      0.628690000000     0.779180000000     0.358110000000    -0.00856749 
C677     C      0.534000000000     0.041290000000     0.510840000000    -0.00855572 
C678     C      0.033030000000     0.981380000000     0.512320000000    -0.00588346 
C679     C      0.507660000000     0.541220000000     0.485100000000    -0.00842857 
C680     C      0.006960000000     0.481130000000     0.486240000000    -0.00870472 
C681     C      0.892270000000     0.542430000000     0.378650000000    -0.00907406 
C682     C      0.891450000000     0.982510000000     0.383490000000    -0.00546998 
C683     C      0.868790000000     0.544820000000     0.407160000000    -0.00885801 
C684     C      0.869770000000     0.985320000000     0.412970000000    -0.00560908 
C685     C      0.643810000000     0.977110000000     0.397150000000    -0.00675539 
C686     C      0.642170000000     0.537240000000     0.397630000000    -0.00857268 
C687     C      0.618210000000     0.976870000000     0.370340000000    -0.00654437 
C688     C      0.618600000000     0.536670000000     0.369490000000    -0.00773108 
C689     C      0.750230000000     0.729530000000     0.758740000000    -0.00729659 
C690     C      0.794340000000     0.770890000000     0.754060000000    -0.00675289 
C691     C      0.735180000000     0.748370000000     0.786510000000    -0.00705585 
C692     C      0.780970000000     0.788320000000     0.783300000000    -0.00753044 
C693     C      0.761310000000     0.990030000000     0.765600000000     0.00118433 
C694     C      0.802040000000     0.535040000000     0.765460000000    -0.00744974 
C695     C      0.742370000000     0.006880000000     0.792310000000    -0.017478   
C696     C      0.784940000000     0.550070000000     0.794250000000    -0.00720345 
C697     C      0.792330000000     0.888110000000     0.878810000000    -0.00787926 
C698     C      0.731890000000     0.888740000000     0.882930000000    -0.0081555  
C699     C      0.794730000000     0.914000000000     0.904630000000    -0.00872925 
C700     C      0.733950000000     0.914390000000     0.908980000000    -0.00858409 
C701     C      0.793720000000     0.637310000000     0.895520000000    -0.00834669 
C702     C      0.732730000000     0.636840000000     0.896120000000    -0.00837865 
C703     C      0.793530000000     0.667870000000     0.915600000000    -0.00820761 
C704     C      0.732900000000     0.667310000000     0.916370000000    -0.00841494 
C705     C      0.987380000000     0.769650000000     0.725670000000    -0.00633294 
C706     C      0.031840000000     0.728630000000     0.730450000000    -0.00709088 
C707     C      0.500350000000     0.786960000000     0.755180000000    -0.00736768 
C708     C      0.546480000000     0.747440000000     0.758470000000    -0.00744308 
C709     C      0.552650000000     0.999390000000     0.735530000000     5.64074e-05
C710     C      0.009670000000     0.542340000000     0.733390000000    -0.00749926 
C711     C      0.537800000000     0.986720000000     0.766700000000    -0.00610544 
C712     C      0.992280000000     0.526610000000     0.761560000000    -0.00664363 
C713     C      0.547030000000     0.884210000000     0.861540000000    -0.00850643 
C714     C      0.986550000000     0.883690000000     0.855810000000    -0.00803522 
C715     C      0.544090000000     0.909720000000     0.887700000000    -0.00848186 
C716     C      0.983660000000     0.909280000000     0.881890000000    -0.00846808 
C717     C      0.546380000000     0.631580000000     0.860390000000    -0.00853847 
C718     C      0.985680000000     0.632060000000     0.857910000000    -0.00825949 
C719     C      0.545700000000     0.661050000000     0.882150000000    -0.00870297 
C720     C      0.984940000000     0.661550000000     0.879600000000    -0.00838413 
C721     C      0.749620000000     0.717870000000     0.249550000000    -0.00812131 
C722     C      0.795710000000     0.757380000000     0.250830000000    -0.0071981  
C723     C      0.738780000000     0.729400000000     0.282760000000    -0.00823377 
C724     C      0.781880000000     0.772150000000     0.281360000000    -0.00683677 
C725     C      0.793810000000     0.787060000000     0.006480000000    -0.00873327 
C726     C      0.733390000000     0.788900000000     0.007250000000    -0.00886902 
C727     C      0.793400000000     0.757190000000     0.027580000000    -0.00773089 
C728     C      0.732450000000     0.759340000000     0.028920000000    -0.00828322 
C729     C      0.748090000000     0.534990000000     0.292970000000    -0.00696373 
C730     C      0.790360000000     0.991750000000     0.297620000000     0.000293045
C731     C      0.733760000000     0.518200000000     0.263770000000    -0.00690249 
C732     C      0.779150000000     0.977710000000     0.265550000000    -0.00697357 
C733     C      0.795230000000     0.500430000000     0.041930000000    -0.00859607 
C734     C      0.734510000000     0.998810000000     0.041220000000     0.00437303 
C735     C      0.794680000000     0.527250000000     0.016850000000    -0.00897606 
C736     C      0.733960000000     0.026080000000     0.016770000000    -0.01515    
C737     C      0.791450000000     0.888870000000     0.162440000000    -0.00746723 
C738     C      0.730760000000     0.888740000000     0.162200000000    -0.00856056 
C739     C      0.791930000000     0.861020000000     0.139010000000    -0.00797536 
C740     C      0.730990000000     0.859210000000     0.140390000000    -0.00871077 
C741     C      0.738370000000     0.637550000000     0.126790000000    -0.00774443 
C742     C      0.798730000000     0.637630000000     0.132730000000    -0.00850596 
C743     C      0.735470000000     0.612260000000     0.152890000000    -0.00767597 
C744     C      0.796180000000     0.610960000000     0.157830000000    -0.00868252 
C745     C      0.975610000000     0.751910000000     0.226410000000    -0.00747038 
C746     C      0.521180000000     0.711890000000     0.224510000000    -0.00674745 
C747     C      0.992240000000     0.769220000000     0.254190000000    -0.00627148 
C748     C      0.536080000000     0.726990000000     0.254390000000    -0.00730376 
C749     C      0.542180000000     0.757630000000     0.005660000000    -0.00940348 
C750     C      0.981170000000     0.755700000000     0.002810000000    -0.00904288 
C751     C      0.542150000000     0.784080000000     0.980320000000    -0.00760501 
C752     C      0.981740000000     0.782450000000     0.977900000000    -0.00721304 
C753     C      0.975230000000     0.987430000000     0.264360000000     0.000716719
C754     C      0.018170000000     0.530180000000     0.261070000000    -0.00740914 
C755     C      0.488620000000     0.972050000000     0.233710000000    -0.0100397  
C756     C      0.534420000000     0.512040000000     0.233650000000    -0.00722256 
C757     C      0.041570000000     0.530770000000     0.986920000000    -0.00716207 
C758     C      0.981080000000     0.031590000000     0.985360000000    -0.00622532 
C759     C      0.540750000000     0.503270000000     0.011050000000    -0.00942448 
C760     C      0.479780000000     0.004560000000     0.010140000000    -0.0150376  
C761     C      0.978790000000     0.857790000000     0.130300000000    -0.00774201 
C762     C      0.539290000000     0.856030000000     0.135020000000    -0.00871921 
C763     C      0.981330000000     0.886710000000     0.108230000000    -0.00817708 
C764     C      0.541870000000     0.886370000000     0.114390000000    -0.00908144 
C765     C      0.973580000000     0.635160000000     0.104720000000    -0.00870955 
C766     C      0.534080000000     0.635220000000     0.100610000000    -0.00793418 
C767     C      0.975460000000     0.608640000000     0.130140000000    -0.00874343 
C768     C      0.536210000000     0.610150000000     0.127070000000    -0.00798745 
H1       H      0.394400000000     0.216150000000     0.671200000000     0.0342834  
H2       H      0.396290000000     0.278590000000     0.667200000000     0.033787   
H3       H      0.417280000000     0.297110000000     0.614930000000     0.0383821  
H4       H      0.364230000000     0.195260000000     0.648320000000     0.0375681  
H5       H      0.419800000000     0.194080000000     0.623350000000     0.038061   
H6       H      0.389370000000     0.211540000000     0.598070000000     0.0347291  
H7       H      0.365530000000     0.298550000000     0.644290000000     0.0378476  
H8       H      0.386750000000     0.274360000000     0.594450000000     0.0356985  
H9       H      0.141600000000     0.285650000000     0.594630000000     0.0345508  
H10      H      0.144180000000     0.222630000000     0.592600000000     0.0356489  
H11      H      0.168790000000     0.199910000000     0.641290000000     0.0384705  
H12      H      0.112810000000     0.303620000000     0.621370000000     0.0377725  
H13      H      0.170070000000     0.303180000000     0.642440000000     0.0380126  
H14      H      0.141430000000     0.283400000000     0.668020000000     0.0346729  
H15      H      0.115080000000     0.200520000000     0.615650000000     0.0383781  
H16      H      0.139460000000     0.219990000000     0.665890000000     0.0347819  
H17      H      0.406090000000     0.480710000000     0.676040000000     0.0347363  
H18      H      0.407590000000     0.043970000000     0.672790000000     0.0340024  
H19      H      0.430680000000     0.062740000000     0.621710000000     0.0382637  
H20      H      0.376870000000     0.460280000000     0.651620000000     0.0378193  
H21      H      0.433450000000     0.459740000000     0.628880000000     0.0377705  
H22      H      0.403850000000     0.477250000000     0.602730000000     0.0343653  
H23      H      0.377540000000     0.063520000000     0.648650000000     0.0385379  
H24      H      0.401090000000     0.040210000000     0.599680000000     0.0351272  
H25      H      0.156790000000     0.051100000000     0.604830000000     0.0341389  
H26      H      0.159070000000     0.988110000000     0.602230000000     0.0363336  
H27      H      0.180770000000     0.464680000000     0.652100000000     0.0380507  
H28      H      0.126620000000     0.069000000000     0.630140000000     0.0379945  
H29      H      0.182440000000     0.067970000000     0.654600000000     0.0378204  
H30      H      0.152340000000     0.547680000000     0.678070000000     0.0345193  
H31      H      0.128620000000     0.465900000000     0.623360000000     0.0385715  
H32      H      0.150270000000     0.484930000000     0.675120000000     0.0344879  
H33      H      0.301770000000     0.214690000000     0.526910000000     0.0349735  
H34      H      0.301320000000     0.278840000000     0.525340000000     0.0348332  
H35      H      0.259020000000     0.297980000000     0.489390000000     0.0380281  
H36      H      0.270110000000     0.195620000000     0.549350000000     0.0379759  
H37      H      0.261100000000     0.194910000000     0.489970000000     0.0379077  
H38      H      0.229120000000     0.213930000000     0.512010000000     0.0347149  
H39      H      0.270140000000     0.298690000000     0.547780000000     0.0380554  
H40      H      0.228300000000     0.277900000000     0.512250000000     0.03511    
H41      H      0.300950000000     0.481820000000     0.528860000000     0.0352866  
H42      H      0.299620000000     0.545660000000     0.528550000000     0.0355255  
H43      H      0.250210000000     0.063980000000     0.501860000000     0.0383688  
H44      H      0.275990000000     0.461720000000     0.557750000000     0.037912   
H45      H      0.252200000000     0.460740000000     0.502910000000     0.037964   
H46      H      0.226760000000     0.980930000000     0.531370000000     0.0354295  
H47      H      0.273540000000     0.064960000000     0.557050000000     0.0380355  
H48      H      0.225450000000     0.043450000000     0.530620000000     0.0341711  
H49      H      0.056380000000     0.278440000000     0.483880000000     0.0348188  
H50      H      0.056060000000     0.215150000000     0.484020000000     0.0344464  
H51      H      0.014960000000     0.195910000000     0.520900000000     0.0380849  
H52      H      0.525530000000     0.298500000000     0.461160000000     0.0378518  
H53      H      0.514830000000     0.299010000000     0.519760000000     0.0382586  
H54      H      0.483440000000     0.279430000000     0.497360000000     0.035025   
H55      H      0.024670000000     0.195340000000     0.461830000000     0.0378102  
H56      H      0.483290000000     0.214880000000     0.498360000000     0.0353084  
H57      H      0.389050000000     0.209310000000     0.418930000000     0.0345125  
H58      H      0.391620000000     0.271850000000     0.422540000000     0.035204   
H59      H      0.418110000000     0.295730000000     0.375620000000     0.0380172  
H60      H      0.361110000000     0.191830000000     0.391000000000     0.0383097  
H61      H      0.419050000000     0.192610000000     0.371860000000     0.038096   
H62      H      0.391250000000     0.212670000000     0.345620000000     0.0352534  
H63      H      0.363390000000     0.294720000000     0.399170000000     0.0381972  
H64      H      0.389500000000     0.276900000000     0.349270000000     0.0347493  
H65      H      0.137410000000     0.283380000000     0.408910000000     0.0348628  
H66      H      0.134900000000     0.219950000000     0.410790000000     0.0359764  
H67      H      0.114480000000     0.197340000000     0.359780000000     0.0377313  
H68      H      0.168150000000     0.301310000000     0.384340000000     0.0381587  
H69      H      0.112870000000     0.300670000000     0.358670000000     0.0381892  
H70      H      0.143340000000     0.280210000000     0.335770000000     0.0343406  
H71      H      0.165800000000     0.198070000000     0.389920000000     0.0381131  
H72      H      0.145420000000     0.218330000000     0.338050000000     0.0336137  
H73      H      0.557070000000     0.479080000000     0.500510000000     0.0348705  
H74      H      0.057950000000     0.542110000000     0.498670000000     0.0349289  
H75      H      0.011050000000     0.062460000000     0.469460000000     0.0381558  
H76      H      0.529630000000     0.460190000000     0.528020000000     0.0379208  
H77      H      0.510020000000     0.959270000000     0.471390000000     0.0378817  
H78      H      0.482900000000     0.979620000000     0.498110000000     0.0355566  
H79      H      0.031590000000     0.563370000000     0.525450000000     0.0381578  
H80      H      0.983750000000     0.043620000000     0.497150000000     0.0350878  
H81      H      0.375740000000     0.479380000000     0.362060000000     0.0344636  
H82      H      0.377730000000     0.042970000000     0.356230000000     0.0343987  
H83      H      0.352880000000     0.066000000000     0.403880000000     0.0379976  
H84      H      0.406670000000     0.460730000000     0.385860000000     0.0379848  
H85      H      0.354810000000     0.463360000000     0.415180000000     0.0380897  
H86      H      0.385540000000     0.486780000000     0.434540000000     0.0351563  
H87      H      0.408300000000     0.063770000000     0.378580000000     0.0384969  
H88      H      0.383350000000     0.048680000000     0.429250000000     0.0341652  
H89      H      0.127910000000     0.038510000000     0.420220000000     0.0356028  
H90      H      0.131070000000     0.474120000000     0.420440000000     0.0348434  
H91      H      0.102560000000     0.455440000000     0.373180000000     0.0377882  
H92      H      0.157080000000     0.059290000000     0.396020000000     0.038251   
H93      H      0.103430000000     0.058600000000     0.370220000000     0.037708   
H94      H      0.132900000000     0.037310000000     0.346900000000     0.0332876  
H95      H      0.160090000000     0.456190000000     0.393970000000     0.0382619  
H96      H      0.131040000000     0.474700000000     0.347010000000     0.0344973  
H97      H      0.314030000000     0.254720000000     0.762300000000     0.034032   
H98      H      0.266570000000     0.210900000000     0.768750000000     0.0369202  
H99      H      0.223100000000     0.231430000000     0.803260000000     0.0339234  
H100     H      0.305340000000     0.288490000000     0.737280000000     0.0350887  
H101     H      0.301360000000     0.298630000000     0.797330000000     0.0356816  
H102     H      0.265920000000     0.308630000000     0.774690000000     0.0347461  
H103     H      0.230700000000     0.217510000000     0.744850000000     0.0338197  
H104     H      0.216530000000     0.264890000000     0.776720000000     0.037217   
H105     H      0.322610000000     0.020520000000     0.774640000000     0.0333425  
H106     H      0.278140000000     0.472440000000     0.776660000000     0.036973   
H107     H      0.229930000000     0.488660000000     0.807370000000     0.0334187  
H108     H      0.312420000000     0.054200000000     0.750080000000     0.035966   
H109     H      0.303150000000     0.061380000000     0.810310000000     0.0349487  
H110     H      0.268910000000     0.069420000000     0.785180000000     0.0346496  
H111     H      0.244040000000     0.476860000000     0.749950000000     0.0349734  
H112     H      0.223720000000     0.522560000000     0.781220000000     0.0369111  
H113     H      0.229130000000     0.400880000000     0.859370000000     0.0341722  
H114     H      0.292020000000     0.400110000000     0.855030000000     0.0336904  
H115     H      0.316330000000     0.429090000000     0.899750000000     0.0379544  
H116     H      0.209970000000     0.373880000000     0.887050000000     0.0376343  
H117     H      0.212010000000     0.429700000000     0.907600000000     0.0384734  
H118     H      0.233720000000     0.402260000000     0.932700000000     0.0354959  
H119     H      0.314300000000     0.372810000000     0.879780000000     0.0380676  
H120     H      0.298420000000     0.402080000000     0.928180000000     0.0359716  
H121     H      0.229990000000     0.143740000000     0.870520000000     0.0348381  
H122     H      0.295840000000     0.144150000000     0.869850000000     0.0345472  
H123     H      0.315240000000     0.182320000000     0.909430000000     0.0379484  
H124     H      0.211240000000     0.122330000000     0.902910000000     0.037908   
H125     H      0.210780000000     0.181380000000     0.910790000000     0.0380839  
H126     H      0.231730000000     0.160320000000     0.942070000000     0.0348053  
H127     H      0.315590000000     0.123170000000     0.901870000000     0.0383239  
H128     H      0.295530000000     0.161020000000     0.941290000000     0.03465    
H129     H      0.515620000000     0.209760000000     0.740220000000     0.0370238  
H130     H      0.467720000000     0.253290000000     0.733610000000     0.0343799  
H131     H      0.479770000000     0.297050000000     0.769110000000     0.0361459  
H132     H      0.051610000000     0.216900000000     0.716640000000     0.0337151  
H133     H      0.058660000000     0.230510000000     0.775150000000     0.0347101  
H134     H      0.064970000000     0.264260000000     0.748910000000     0.0374332  
H135     H      0.476410000000     0.287300000000     0.708920000000     0.0350403  
H136     H      0.015360000000     0.307420000000     0.746840000000     0.0348146  
H137     H      0.025830000000     0.061500000000     0.742660000000     0.0376788  
H138     H      0.073220000000     0.515300000000     0.741980000000     0.0342226  
H139     H      0.057420000000     0.478820000000     0.783170000000     0.0359923  
H140     H      0.491380000000     0.053400000000     0.717230000000     0.0343276  
H141     H      0.478620000000     0.045210000000     0.775030000000     0.0349978  
H142     H      0.474770000000     0.008710000000     0.752160000000     0.0362368  
H143     H      0.062830000000     0.479130000000     0.721480000000     0.0359015  
H144     H      0.523140000000     0.465240000000     0.760700000000     0.033882   
H145     H      0.487170000000     0.395950000000     0.832160000000     0.0343666  
H146     H      0.050810000000     0.396500000000     0.838200000000     0.0347267  
H147     H      0.066100000000     0.425000000000     0.887320000000     0.038305   
H148     H      0.464580000000     0.368360000000     0.856300000000     0.0382863  
H149     H      0.461990000000     0.424260000000     0.877030000000     0.038003   
H150     H      0.479890000000     0.397040000000     0.905260000000     0.0352911  
H151     H      0.068690000000     0.369230000000     0.866420000000     0.037723   
H152     H      0.043340000000     0.397400000000     0.911310000000     0.0347979  
H153     H      0.985000000000     0.140320000000     0.832570000000     0.0347156  
H154     H      0.049340000000     0.139800000000     0.835210000000     0.034798   
H155     H      0.067850000000     0.175450000000     0.877620000000     0.0382268  
H156     H      0.463480000000     0.117690000000     0.862270000000     0.0382764  
H157     H      0.463490000000     0.176280000000     0.873260000000     0.0382346  
H158     H      0.481820000000     0.153340000000     0.904760000000     0.0350586  
H159     H      0.067860000000     0.116840000000     0.866650000000     0.0380163  
H160     H      0.546530000000     0.152800000000     0.907470000000     0.0351145  
H161     H      0.314220000000     0.239240000000     0.257490000000     0.0378499  
H162     H      0.264480000000     0.195950000000     0.252880000000     0.0338896  
H163     H      0.230420000000     0.208570000000     0.297130000000     0.0359102  
H164     H      0.307730000000     0.276460000000     0.236530000000     0.0352003  
H165     H      0.302020000000     0.282550000000     0.295720000000     0.0339098  
H166     H      0.264930000000     0.291730000000     0.274720000000     0.0378925  
H167     H      0.228000000000     0.210870000000     0.235270000000     0.0363446  
H168     H      0.217510000000     0.245370000000     0.279470000000     0.0336849  
H169     H      0.233370000000     0.310500000000     0.022810000000     0.034532   
H170     H      0.295440000000     0.308370000000     0.022340000000     0.0347425  
H171     H      0.315660000000     0.256860000000     0.042530000000     0.0377201  
H172     H      0.211150000000     0.289630000000     0.992280000000     0.0383654  
H173     H      0.211030000000     0.260990000000     0.044950000000     0.0377265  
H174     H      0.229310000000     0.237890000000     0.013480000000     0.0353815  
H175     H      0.315710000000     0.286720000000     0.991010000000     0.0383725  
H176     H      0.294090000000     0.235840000000     0.011700000000     0.0355462  
H177     H      0.311610000000     0.507360000000     0.292840000000     0.0338062  
H178     H      0.265650000000     0.053420000000     0.284740000000     0.037159   
H179     H      0.222210000000     0.036370000000     0.247970000000     0.0346749  
H180     H      0.298770000000     0.472120000000     0.313590000000     0.0354619  
H181     H      0.300560000000     0.469270000000     0.251760000000     0.0362718  
H182     H      0.263980000000     0.456370000000     0.270750000000     0.0339432  
H183     H      0.228300000000     0.047100000000     0.306410000000     0.0341983  
H184     H      0.214800000000     0.001140000000     0.271890000000     0.0367172  
H185     H      0.233680000000     0.475790000000     0.027910000000     0.0350904  
H186     H      0.297890000000     0.477260000000     0.029130000000     0.034983   
H187     H      0.316630000000     0.025270000000     0.001570000000     0.037501   
H188     H      0.212340000000     0.500260000000     0.056230000000     0.0377578  
H189     H      0.212100000000     0.523510000000     0.001440000000     0.0378799  
H190     H      0.231840000000     0.049050000000     0.030040000000     0.036114   
H191     H      0.316820000000     0.003570000000     0.057520000000     0.0372496  
H192     H      0.296000000000     0.050510000000     0.029710000000     0.0345815  
H193     H      0.228640000000     0.380470000000     0.187450000000     0.0346152  
H194     H      0.292710000000     0.379100000000     0.187200000000     0.033995   
H195     H      0.314300000000     0.346870000000     0.143240000000     0.0379735  
H196     H      0.208990000000     0.403360000000     0.156650000000     0.0380038  
H197     H      0.210010000000     0.343810000000     0.146720000000     0.0382812  
H198     H      0.227530000000     0.367360000000     0.115260000000     0.0343145  
H199     H      0.313470000000     0.403630000000     0.158490000000     0.038128   
H200     H      0.293090000000     0.370750000000     0.114220000000     0.0356786  
H201     H      0.302750000000     0.126360000000     0.108920000000     0.0343858  
H202     H      0.239700000000     0.125180000000     0.103220000000     0.0347831  
H203     H      0.213520000000     0.097600000000     0.148230000000     0.037707   
H204     H      0.320140000000     0.152770000000     0.138260000000     0.0380208  
H205     H      0.317830000000     0.095310000000     0.155870000000     0.0383646  
H206     H      0.296580000000     0.122180000000     0.181990000000     0.0350182  
H207     H      0.216160000000     0.152540000000     0.126770000000     0.0381389  
H208     H      0.232070000000     0.124570000000     0.176280000000     0.0346916  
H209     H      0.506050000000     0.191330000000     0.232330000000     0.0343366  
H210     H      0.458040000000     0.234370000000     0.236370000000     0.0367217  
H211     H      0.473520000000     0.280480000000     0.269730000000     0.0336605  
H212     H      0.040680000000     0.202290000000     0.208830000000     0.0352792  
H213     H      0.047030000000     0.207990000000     0.269600000000     0.0355724  
H214     H      0.056050000000     0.243020000000     0.246560000000     0.0346184  
H215     H      0.462120000000     0.269670000000     0.211710000000     0.0349088  
H216     H      0.008040000000     0.288370000000     0.244330000000     0.0371744  
H217     H      0.480210000000     0.232420000000     0.989970000000     0.0360913  
H218     H      0.046020000000     0.234350000000     0.993350000000     0.0357708  
H219     H      0.064820000000     0.282560000000     0.966060000000     0.0374812  
H220     H      0.458630000000     0.257920000000     0.017180000000     0.0384889  
H221     H      0.460380000000     0.279980000000     0.961890000000     0.0373602  
H222     H      0.479570000000     0.305690000000     0.990680000000     0.0343232  
H223     H      0.062960000000     0.261560000000     0.022130000000     0.0381811  
H224     H      0.042100000000     0.307530000000     0.992900000000     0.034253   
H225     H      0.501490000000     0.048400000000     0.250820000000     0.0364901  
H226     H      0.454510000000     0.502940000000     0.257450000000     0.0336743  
H227     H      0.468220000000     0.463120000000     0.218770000000     0.0356066  
H228     H      0.037050000000     0.042670000000     0.275420000000     0.0332655  
H229     H      0.047460000000     0.029430000000     0.218120000000     0.0354546  
H230     H      0.052410000000     0.995060000000     0.243850000000     0.041971   
H231     H      0.465530000000     0.468520000000     0.280470000000     0.0354754  
H232     H      0.003260000000     0.450910000000     0.240850000000     0.0337284  
H233     H      0.479810000000     0.554730000000     0.998430000000     0.034355   
H234     H      0.542610000000     0.053640000000     0.000480000000     0.0339281  
H235     H      0.062400000000     0.005040000000     0.026760000000     0.0388078  
H236     H      0.459460000000     0.530040000000     0.969590000000     0.0375029  
H237     H      0.457880000000     0.507740000000     0.025280000000     0.0382537  
H238     H      0.977210000000     0.481510000000     0.997080000000     0.0359193  
H239     H      0.063990000000     0.028930000000     0.972310000000     0.0363505  
H240     H      0.042480000000     0.980390000000     0.997580000000     0.0401588  
H241     H      0.039520000000     0.363360000000     0.160650000000     0.0343547  
H242     H      0.475580000000     0.366500000000     0.155290000000     0.0340425  
H243     H      0.459070000000     0.401390000000     0.111000000000     0.0385313  
H244     H      0.061030000000     0.340960000000     0.130760000000     0.0380515  
H245     H      0.062830000000     0.400760000000     0.122840000000     0.0379038  
H246     H      0.046860000000     0.379000000000     0.089270000000     0.0348096  
H247     H      0.456830000000     0.343900000000     0.123740000000     0.037758   
H248     H      0.482110000000     0.378040000000     0.083040000000     0.0356133  
H249     H      0.033560000000     0.122610000000     0.077140000000     0.035035   
H250     H      0.470290000000     0.123660000000     0.080910000000     0.0346627  
H251     H      0.453910000000     0.092920000000     0.127740000000     0.0379772  
H252     H      0.056240000000     0.150280000000     0.101140000000     0.038256   
H253     H      0.058400000000     0.095590000000     0.123380000000     0.0375707  
H254     H      0.038670000000     0.122730000000     0.150430000000     0.0343231  
H255     H      0.451970000000     0.150260000000     0.109470000000     0.0380091  
H256     H      0.474360000000     0.120080000000     0.154170000000     0.0346192  
H257     H      0.394400000000     0.716150000000     0.671200000000     0.0342669  
H258     H      0.396290000000     0.778580000000     0.667200000000     0.033813   
H259     H      0.417280000000     0.797110000000     0.614930000000     0.0384083  
H260     H      0.364230000000     0.695260000000     0.648320000000     0.0375483  
H261     H      0.419800000000     0.694080000000     0.623350000000     0.0380488  
H262     H      0.389370000000     0.711540000000     0.598070000000     0.0347175  
H263     H      0.365530000000     0.798550000000     0.644290000000     0.0378806  
H264     H      0.386750000000     0.774350000000     0.594450000000     0.0357057  
H265     H      0.141600000000     0.785650000000     0.594630000000     0.0345511  
H266     H      0.144180000000     0.722630000000     0.592600000000     0.0356364  
H267     H      0.168790000000     0.699910000000     0.641290000000     0.0384522  
H268     H      0.112810000000     0.803620000000     0.621370000000     0.0377901  
H269     H      0.170070000000     0.803180000000     0.642440000000     0.0380211  
H270     H      0.141430000000     0.783400000000     0.668020000000     0.0346798  
H271     H      0.115080000000     0.700520000000     0.615650000000     0.0383666  
H272     H      0.139460000000     0.719990000000     0.665890000000     0.0347654  
H273     H      0.406090000000     0.980710000000     0.676040000000     0.035629   
H274     H      0.407590000000     0.543970000000     0.672790000000     0.0344424  
H275     H      0.430680000000     0.562740000000     0.621710000000     0.0382094  
H276     H      0.376870000000     0.960280000000     0.651620000000     0.0377604  
H277     H      0.433450000000     0.959740000000     0.628880000000     0.0376564  
H278     H      0.403850000000     0.977250000000     0.602730000000     0.0350216  
H279     H      0.377540000000     0.563520000000     0.648650000000     0.0384422  
H280     H      0.401090000000     0.540200000000     0.599680000000     0.0357646  
H281     H      0.156790000000     0.551100000000     0.604830000000     0.0346195  
H282     H      0.159070000000     0.488110000000     0.602230000000     0.0355085  
H283     H      0.180770000000     0.964680000000     0.652100000000     0.0379099  
H284     H      0.126620000000     0.569000000000     0.630140000000     0.0379225  
H285     H      0.182440000000     0.567980000000     0.654600000000     0.0377226  
H286     H      0.152340000000     0.047680000000     0.678070000000     0.0339976  
H287     H      0.128620000000     0.965900000000     0.623360000000     0.0384338  
H288     H      0.150270000000     0.984930000000     0.675120000000     0.0352746  
H289     H      0.301770000000     0.714690000000     0.526910000000     0.0349625  
H290     H      0.301320000000     0.778840000000     0.525340000000     0.0348324  
H291     H      0.259020000000     0.797980000000     0.489390000000     0.0380389  
H292     H      0.270110000000     0.695620000000     0.549350000000     0.0379644  
H293     H      0.261100000000     0.694910000000     0.489970000000     0.0378971  
H294     H      0.229120000000     0.713930000000     0.512010000000     0.0347019  
H295     H      0.270140000000     0.798690000000     0.547780000000     0.0380669  
H296     H      0.228300000000     0.777900000000     0.512250000000     0.0351074  
H297     H      0.300950000000     0.981820000000     0.528860000000     0.0360263  
H298     H      0.299620000000     0.045660000000     0.528550000000     0.0350042  
H299     H      0.250210000000     0.563980000000     0.501860000000     0.0383133  
H300     H      0.275990000000     0.961720000000     0.557750000000     0.0377581  
H301     H      0.252200000000     0.960740000000     0.502910000000     0.0378177  
H302     H      0.226760000000     0.480930000000     0.531370000000     0.0347271  
H303     H      0.273540000000     0.564960000000     0.557050000000     0.0379637  
H304     H      0.225450000000     0.543450000000     0.530620000000     0.0347618  
H305     H      0.056380000000     0.778440000000     0.483880000000     0.0348181  
H306     H      0.056060000000     0.715150000000     0.484020000000     0.0344326  
H307     H      0.014960000000     0.695910000000     0.520900000000     0.0380759  
H308     H      0.525530000000     0.798500000000     0.461160000000     0.0378666  
H309     H      0.514830000000     0.799010000000     0.519760000000     0.0382731  
H310     H      0.483440000000     0.779430000000     0.497360000000     0.0350254  
H311     H      0.024670000000     0.695340000000     0.461830000000     0.0377939  
H312     H      0.483290000000     0.714880000000     0.498360000000     0.0352976  
H313     H      0.389050000000     0.709310000000     0.418930000000     0.0345019  
H314     H      0.391620000000     0.771850000000     0.422540000000     0.0351927  
H315     H      0.418110000000     0.795740000000     0.375620000000     0.038048   
H316     H      0.361110000000     0.691830000000     0.391000000000     0.0383068  
H317     H      0.419050000000     0.692610000000     0.371860000000     0.0380902  
H318     H      0.391250000000     0.712670000000     0.345620000000     0.035256   
H319     H      0.363390000000     0.794720000000     0.399170000000     0.0382006  
H320     H      0.389500000000     0.776900000000     0.349270000000     0.0347806  
H321     H      0.137410000000     0.783380000000     0.408910000000     0.0348243  
H322     H      0.134900000000     0.719950000000     0.410790000000     0.0359652  
H323     H      0.114480000000     0.697340000000     0.359780000000     0.0377077  
H324     H      0.168150000000     0.801310000000     0.384340000000     0.0381439  
H325     H      0.112870000000     0.800670000000     0.358670000000     0.0382506  
H326     H      0.143340000000     0.780210000000     0.335770000000     0.0343898  
H327     H      0.165800000000     0.698070000000     0.389920000000     0.0381049  
H328     H      0.145420000000     0.718330000000     0.338050000000     0.0335949  
H329     H      0.557070000000     0.979080000000     0.500510000000     0.03558    
H330     H      0.057950000000     0.042110000000     0.498670000000     0.0343575  
H331     H      0.011050000000     0.562460000000     0.469460000000     0.0380952  
H332     H      0.529630000000     0.960190000000     0.528020000000     0.0377808  
H333     H      0.510020000000     0.459270000000     0.471390000000     0.0380372  
H334     H      0.482900000000     0.479620000000     0.498110000000     0.0348464  
H335     H      0.031590000000     0.063370000000     0.525450000000     0.0382135  
H336     H      0.983750000000     0.543620000000     0.497150000000     0.0356332  
H337     H      0.375740000000     0.979380000000     0.362060000000     0.0351802  
H338     H      0.377730000000     0.542970000000     0.356230000000     0.0349184  
H339     H      0.352880000000     0.566000000000     0.403880000000     0.0379254  
H340     H      0.406670000000     0.960730000000     0.385860000000     0.0378306  
H341     H      0.354810000000     0.963350000000     0.415180000000     0.0379464  
H342     H      0.385540000000     0.986780000000     0.434540000000     0.0360105  
H343     H      0.408300000000     0.563770000000     0.378580000000     0.0384433  
H344     H      0.383350000000     0.548680000000     0.429250000000     0.0346817  
H345     H      0.127910000000     0.538500000000     0.420220000000     0.0361692  
H346     H      0.131070000000     0.974120000000     0.420440000000     0.0354866  
H347     H      0.102560000000     0.955440000000     0.373180000000     0.0376707  
H348     H      0.157080000000     0.559290000000     0.396020000000     0.0381869  
H349     H      0.103430000000     0.558600000000     0.370220000000     0.0376487  
H350     H      0.132900000000     0.537310000000     0.346900000000     0.0338438  
H351     H      0.160090000000     0.956190000000     0.393970000000     0.0381661  
H352     H      0.131040000000     0.974700000000     0.347010000000     0.0352792  
H353     H      0.314030000000     0.754720000000     0.762300000000     0.0340277  
H354     H      0.266570000000     0.710900000000     0.768750000000     0.0369083  
H355     H      0.223100000000     0.731430000000     0.803260000000     0.033925   
H356     H      0.305340000000     0.788490000000     0.737280000000     0.0351165  
H357     H      0.301360000000     0.798630000000     0.797330000000     0.0357296  
H358     H      0.265920000000     0.808630000000     0.774690000000     0.0348026  
H359     H      0.230700000000     0.717510000000     0.744850000000     0.0338096  
H360     H      0.216530000000     0.764890000000     0.776720000000     0.0372235  
H361     H      0.322610000000     0.520520000000     0.774640000000     0.0343414  
H362     H      0.278140000000     0.972440000000     0.776660000000     0.0362539  
H363     H      0.229930000000     0.988660000000     0.807370000000     0.0384979  
H364     H      0.312420000000     0.554200000000     0.750080000000     0.0360919  
H365     H      0.303150000000     0.561380000000     0.810310000000     0.0349266  
H366     H      0.268910000000     0.569420000000     0.785180000000     0.0345012  
H367     H      0.244040000000     0.976860000000     0.749950000000     0.0340796  
H368     H      0.223720000000     0.022560000000     0.781220000000     0.0381776  
H369     H      0.229130000000     0.900880000000     0.859370000000     0.0344336  
H370     H      0.292020000000     0.900110000000     0.855030000000     0.034009   
H371     H      0.316330000000     0.929090000000     0.899750000000     0.038525   
H372     H      0.209970000000     0.873880000000     0.887050000000     0.0377804  
H373     H      0.212010000000     0.929690000000     0.907600000000     0.0390124  
H374     H      0.233720000000     0.902260000000     0.932700000000     0.0358026  
H375     H      0.314300000000     0.872820000000     0.879780000000     0.0382289  
H376     H      0.298420000000     0.902080000000     0.928180000000     0.0362676  
H377     H      0.229990000000     0.643740000000     0.870520000000     0.0348503  
H378     H      0.295840000000     0.644150000000     0.869850000000     0.0345444  
H379     H      0.315240000000     0.682320000000     0.909430000000     0.0379481  
H380     H      0.211240000000     0.622330000000     0.902910000000     0.0379691  
H381     H      0.210780000000     0.681380000000     0.910790000000     0.0380887  
H382     H      0.231730000000     0.660320000000     0.942070000000     0.0348163  
H383     H      0.315590000000     0.623170000000     0.901870000000     0.0383671  
H384     H      0.295530000000     0.661020000000     0.941290000000     0.0346587  
H385     H      0.515620000000     0.709760000000     0.740220000000     0.0370075  
H386     H      0.467720000000     0.753290000000     0.733610000000     0.0343735  
H387     H      0.479770000000     0.797050000000     0.769110000000     0.0361841  
H388     H      0.051610000000     0.716900000000     0.716640000000     0.0337054  
H389     H      0.058660000000     0.730510000000     0.775150000000     0.0346922  
H390     H      0.064970000000     0.764260000000     0.748910000000     0.0374391  
H391     H      0.476410000000     0.787300000000     0.708920000000     0.0350701  
H392     H      0.015360000000     0.807420000000     0.746840000000     0.0348638  
H393     H      0.025830000000     0.561500000000     0.742660000000     0.0377661  
H394     H      0.073220000000     0.015300000000     0.741980000000     0.0299838  
H395     H      0.057420000000     0.978820000000     0.783170000000     0.0370992  
H396     H      0.491380000000     0.553400000000     0.717230000000     0.0343933  
H397     H      0.478620000000     0.545210000000     0.775030000000     0.0351126  
H398     H      0.474770000000     0.508710000000     0.752160000000     0.0373993  
H399     H      0.062830000000     0.979130000000     0.721480000000     0.0350864  
H400     H      0.523140000000     0.965240000000     0.760700000000     0.034476   
H401     H      0.487170000000     0.895950000000     0.832160000000     0.034683   
H402     H      0.050810000000     0.896500000000     0.838200000000     0.0349776  
H403     H      0.066100000000     0.925000000000     0.887320000000     0.0388192  
H404     H      0.464580000000     0.868370000000     0.856300000000     0.0384311  
H405     H      0.461990000000     0.924260000000     0.877030000000     0.0385458  
H406     H      0.479890000000     0.897040000000     0.905260000000     0.0355558  
H407     H      0.068690000000     0.869230000000     0.866420000000     0.0378432  
H408     H      0.043340000000     0.897400000000     0.911310000000     0.035072   
H409     H      0.985000000000     0.640320000000     0.832570000000     0.0347166  
H410     H      0.049340000000     0.639800000000     0.835210000000     0.0348169  
H411     H      0.067850000000     0.675450000000     0.877620000000     0.0382222  
H412     H      0.463480000000     0.617690000000     0.862270000000     0.0383251  
H413     H      0.463490000000     0.676280000000     0.873260000000     0.0382229  
H414     H      0.481820000000     0.653340000000     0.904760000000     0.0350558  
H415     H      0.067860000000     0.616840000000     0.866650000000     0.0380924  
H416     H      0.546530000000     0.652800000000     0.907470000000     0.0351149  
H417     H      0.314220000000     0.739230000000     0.257490000000     0.0378451  
H418     H      0.264480000000     0.695950000000     0.252880000000     0.0339036  
H419     H      0.230420000000     0.708570000000     0.297130000000     0.0359081  
H420     H      0.307730000000     0.776460000000     0.236530000000     0.0352058  
H421     H      0.302020000000     0.782550000000     0.295720000000     0.033927   
H422     H      0.264930000000     0.791730000000     0.274720000000     0.0379302  
H423     H      0.228000000000     0.710870000000     0.235270000000     0.0363507  
H424     H      0.217510000000     0.745370000000     0.279470000000     0.0336912  
H425     H      0.233370000000     0.810500000000     0.022810000000     0.0346422  
H426     H      0.295440000000     0.808370000000     0.022340000000     0.0348412  
H427     H      0.315660000000     0.756860000000     0.042530000000     0.0377192  
H428     H      0.211150000000     0.789630000000     0.992280000000     0.038452   
H429     H      0.211030000000     0.761000000000     0.044950000000     0.0377319  
H430     H      0.229310000000     0.737890000000     0.013480000000     0.0353615  
H431     H      0.315710000000     0.786720000000     0.991010000000     0.0384495  
H432     H      0.294090000000     0.735840000000     0.011700000000     0.0355233  
H433     H      0.311610000000     0.007360000000     0.292840000000     0.029421   
H434     H      0.265650000000     0.553420000000     0.284740000000     0.0373622  
H435     H      0.222210000000     0.536370000000     0.247970000000     0.0347722  
H436     H      0.298770000000     0.972120000000     0.313590000000     0.0345941  
H437     H      0.300560000000     0.969270000000     0.251760000000     0.0369314  
H438     H      0.263980000000     0.956370000000     0.270750000000     0.0345415  
H439     H      0.228300000000     0.547100000000     0.306410000000     0.0342976  
H440     H      0.214800000000     0.501140000000     0.271890000000     0.0378215  
H441     H      0.233680000000     0.975790000000     0.027910000000     0.0337246  
H442     H      0.297890000000     0.977260000000     0.029130000000     0.0387191  
H443     H      0.316630000000     0.525270000000     0.001570000000     0.0383327  
H444     H      0.212340000000     0.000260000000     0.056230000000     0.031951   
H445     H      0.212100000000     0.023510000000     0.001440000000     0.0385156  
H446     H      0.231840000000     0.549050000000     0.030040000000     0.0350497  
H447     H      0.316820000000     0.503570000000     0.057520000000     0.0373373  
H448     H      0.296000000000     0.550510000000     0.029710000000     0.0348272  
H449     H      0.228640000000     0.880470000000     0.187450000000     0.0348372  
H450     H      0.292710000000     0.879100000000     0.187200000000     0.0340806  
H451     H      0.314300000000     0.846870000000     0.143240000000     0.0380228  
H452     H      0.208990000000     0.903360000000     0.156650000000     0.0384089  
H453     H      0.210010000000     0.843810000000     0.146720000000     0.0383699  
H454     H      0.227530000000     0.867360000000     0.115260000000     0.0344986  
H455     H      0.313470000000     0.903620000000     0.158490000000     0.0383222  
H456     H      0.293090000000     0.870750000000     0.114220000000     0.0358449  
H457     H      0.302750000000     0.626360000000     0.108920000000     0.0344888  
H458     H      0.239700000000     0.625180000000     0.103220000000     0.0348974  
H459     H      0.213520000000     0.597610000000     0.148230000000     0.0378629  
H460     H      0.320140000000     0.652770000000     0.138260000000     0.0380711  
H461     H      0.317830000000     0.595310000000     0.155870000000     0.0386957  
H462     H      0.296580000000     0.622180000000     0.181990000000     0.0351502  
H463     H      0.216160000000     0.652540000000     0.126770000000     0.0381734  
H464     H      0.232070000000     0.624570000000     0.176280000000     0.0347253  
H465     H      0.506050000000     0.691320000000     0.232330000000     0.0343475  
H466     H      0.458040000000     0.734370000000     0.236370000000     0.0367237  
H467     H      0.473520000000     0.780480000000     0.269730000000     0.0336633  
H468     H      0.040680000000     0.702290000000     0.208830000000     0.0352881  
H469     H      0.047030000000     0.707990000000     0.269600000000     0.0355716  
H470     H      0.056050000000     0.743020000000     0.246560000000     0.0346216  
H471     H      0.462120000000     0.769670000000     0.211710000000     0.034916   
H472     H      0.008040000000     0.788370000000     0.244330000000     0.0371908  
H473     H      0.480210000000     0.732420000000     0.989970000000     0.0361024  
H474     H      0.046020000000     0.734350000000     0.993350000000     0.0357839  
H475     H      0.064820000000     0.782560000000     0.966060000000     0.0375154  
H476     H      0.458630000000     0.757920000000     0.017180000000     0.038507   
H477     H      0.460380000000     0.779970000000     0.961890000000     0.0373897  
H478     H      0.479570000000     0.805690000000     0.990680000000     0.034426   
H479     H      0.062960000000     0.761560000000     0.022130000000     0.038206   
H480     H      0.042100000000     0.807530000000     0.992900000000     0.0343611  
H481     H      0.501490000000     0.548400000000     0.250820000000     0.0373884  
H482     H      0.454510000000     0.002940000000     0.257450000000     0.0289728  
H483     H      0.468220000000     0.963120000000     0.218770000000     0.036567   
H484     H      0.037050000000     0.542670000000     0.275420000000     0.0341134  
H485     H      0.047460000000     0.529440000000     0.218120000000     0.0347144  
H486     H      0.052410000000     0.495060000000     0.243850000000     0.0372512  
H487     H      0.465530000000     0.968520000000     0.280470000000     0.0344525  
H488     H      0.003260000000     0.950910000000     0.240850000000     0.0344151  
H489     H      0.479810000000     0.054730000000     0.998430000000     0.0340881  
H490     H      0.542610000000     0.553650000000     0.000480000000     0.0341364  
H491     H      0.062400000000     0.505040000000     0.026760000000     0.0384984  
H492     H      0.459460000000     0.030040000000     0.969590000000     0.0365567  
H493     H      0.457880000000     0.007740000000     0.025280000000     0.0385939  
H494     H      0.977210000000     0.981510000000     0.997080000000     0.0401397  
H495     H      0.063990000000     0.528930000000     0.972310000000     0.0372986  
H496     H      0.042480000000     0.480390000000     0.997580000000     0.0359598  
H497     H      0.039520000000     0.863350000000     0.160650000000     0.03442    
H498     H      0.475580000000     0.866510000000     0.155290000000     0.0340707  
H499     H      0.459070000000     0.901380000000     0.111000000000     0.0387737  
H500     H      0.061030000000     0.840950000000     0.130760000000     0.0381273  
H501     H      0.062830000000     0.900760000000     0.122840000000     0.0381937  
H502     H      0.046860000000     0.879000000000     0.089270000000     0.0350432  
H503     H      0.456830000000     0.843900000000     0.123740000000     0.0378069  
H504     H      0.482110000000     0.878040000000     0.083040000000     0.0358231  
H505     H      0.033560000000     0.622610000000     0.077140000000     0.0350587  
H506     H      0.470290000000     0.623660000000     0.080910000000     0.0347108  
H507     H      0.453910000000     0.592920000000     0.127740000000     0.0383106  
H508     H      0.056240000000     0.650280000000     0.101140000000     0.0382806  
H509     H      0.058400000000     0.595590000000     0.123380000000     0.037808   
H510     H      0.038670000000     0.622730000000     0.150430000000     0.0344703  
H511     H      0.451970000000     0.650260000000     0.109470000000     0.0380518  
H512     H      0.474360000000     0.620080000000     0.154170000000     0.0348055  
H513     H      0.894400000000     0.216150000000     0.671200000000     0.0342991  
H514     H      0.896290000000     0.278590000000     0.667200000000     0.0338003  
H515     H      0.917280000000     0.297110000000     0.614930000000     0.0384078  
H516     H      0.864230000000     0.195260000000     0.648320000000     0.0375691  
H517     H      0.919800000000     0.194080000000     0.623350000000     0.0380838  
H518     H      0.889360000000     0.211540000000     0.598070000000     0.0347312  
H519     H      0.865530000000     0.298550000000     0.644290000000     0.0378493  
H520     H      0.886750000000     0.274360000000     0.594450000000     0.0357086  
H521     H      0.641600000000     0.285650000000     0.594630000000     0.0345488  
H522     H      0.644180000000     0.222630000000     0.592600000000     0.0356345  
H523     H      0.668790000000     0.199910000000     0.641290000000     0.0384745  
H524     H      0.612810000000     0.303620000000     0.621370000000     0.0377759  
H525     H      0.670070000000     0.303180000000     0.642440000000     0.0380128  
H526     H      0.641430000000     0.283400000000     0.668020000000     0.0346745  
H527     H      0.615080000000     0.200520000000     0.615650000000     0.0383693  
H528     H      0.639460000000     0.219990000000     0.665890000000     0.0347865  
H529     H      0.906090000000     0.480710000000     0.676040000000     0.0347526  
H530     H      0.907590000000     0.043970000000     0.672790000000     0.0340046  
H531     H      0.930690000000     0.062740000000     0.621710000000     0.0382982  
H532     H      0.876870000000     0.460280000000     0.651620000000     0.037827   
H533     H      0.933450000000     0.459740000000     0.628880000000     0.0378025  
H534     H      0.903850000000     0.477250000000     0.602730000000     0.0343799  
H535     H      0.877540000000     0.063520000000     0.648650000000     0.0385353  
H536     H      0.901090000000     0.040210000000     0.599680000000     0.0351421  
H537     H      0.656790000000     0.051100000000     0.604830000000     0.0341366  
H538     H      0.659070000000     0.988110000000     0.602230000000     0.0363323  
H539     H      0.680770000000     0.464680000000     0.652100000000     0.0380503  
H540     H      0.626620000000     0.069000000000     0.630140000000     0.0379953  
H541     H      0.682440000000     0.067970000000     0.654600000000     0.0378199  
H542     H      0.652340000000     0.547680000000     0.678070000000     0.0345195  
H543     H      0.628620000000     0.465900000000     0.623360000000     0.0385729  
H544     H      0.650270000000     0.484930000000     0.675120000000     0.0344889  
H545     H      0.801770000000     0.214690000000     0.526910000000     0.0349774  
H546     H      0.801320000000     0.278840000000     0.525340000000     0.0348374  
H547     H      0.759020000000     0.297980000000     0.489390000000     0.038028   
H548     H      0.770110000000     0.195620000000     0.549350000000     0.0379758  
H549     H      0.761100000000     0.194910000000     0.489970000000     0.0379074  
H550     H      0.729120000000     0.213930000000     0.512010000000     0.0347124  
H551     H      0.770140000000     0.298690000000     0.547780000000     0.0380559  
H552     H      0.728300000000     0.277900000000     0.512250000000     0.0351078  
H553     H      0.800950000000     0.481820000000     0.528860000000     0.0352905  
H554     H      0.799620000000     0.545660000000     0.528550000000     0.0355338  
H555     H      0.750210000000     0.063980000000     0.501860000000     0.0383572  
H556     H      0.775990000000     0.461720000000     0.557750000000     0.0379139  
H557     H      0.752200000000     0.460740000000     0.502910000000     0.0379636  
H558     H      0.726760000000     0.980930000000     0.531370000000     0.0354276  
H559     H      0.773540000000     0.064960000000     0.557050000000     0.0380378  
H560     H      0.725450000000     0.043450000000     0.530620000000     0.0341545  
H561     H      0.556380000000     0.278440000000     0.483880000000     0.0348287  
H562     H      0.556060000000     0.215150000000     0.484020000000     0.0344551  
H563     H      0.514960000000     0.195910000000     0.520900000000     0.0380538  
H564     H      0.025530000000     0.298500000000     0.461160000000     0.0377939  
H565     H      0.014830000000     0.299010000000     0.519760000000     0.0382888  
H566     H      0.983440000000     0.279430000000     0.497360000000     0.0352594  
H567     H      0.524670000000     0.195340000000     0.461830000000     0.0378674  
H568     H      0.983290000000     0.214880000000     0.498360000000     0.0355424  
H569     H      0.889050000000     0.209310000000     0.418930000000     0.0345398  
H570     H      0.891620000000     0.271850000000     0.422540000000     0.0352097  
H571     H      0.918110000000     0.295730000000     0.375620000000     0.0380483  
H572     H      0.861110000000     0.191830000000     0.391000000000     0.0383281  
H573     H      0.919050000000     0.192610000000     0.371860000000     0.0381292  
H574     H      0.891250000000     0.212670000000     0.345620000000     0.0352652  
H575     H      0.863380000000     0.294720000000     0.399170000000     0.0382033  
H576     H      0.889500000000     0.276900000000     0.349270000000     0.0347643  
H577     H      0.637410000000     0.283380000000     0.408910000000     0.0348626  
H578     H      0.634900000000     0.219950000000     0.410790000000     0.0359752  
H579     H      0.614480000000     0.197340000000     0.359780000000     0.0377441  
H580     H      0.668150000000     0.301310000000     0.384340000000     0.0381574  
H581     H      0.612870000000     0.300670000000     0.358670000000     0.0382054  
H582     H      0.643340000000     0.280210000000     0.335770000000     0.0343439  
H583     H      0.665800000000     0.198070000000     0.389920000000     0.0381106  
H584     H      0.645420000000     0.218330000000     0.338050000000     0.0336152  
H585     H      0.057060000000     0.479080000000     0.500510000000     0.0348742  
H586     H      0.557950000000     0.542110000000     0.498670000000     0.0349483  
H587     H      0.511050000000     0.062460000000     0.469460000000     0.0381336  
H588     H      0.029630000000     0.460190000000     0.528020000000     0.037873   
H589     H      0.010020000000     0.959270000000     0.471390000000     0.0379041  
H590     H      0.982900000000     0.979620000000     0.498110000000     0.0357917  
H591     H      0.531600000000     0.563370000000     0.525450000000     0.0382174  
H592     H      0.483760000000     0.043620000000     0.497150000000     0.0348641  
H593     H      0.875740000000     0.479380000000     0.362060000000     0.0344701  
H594     H      0.877730000000     0.042970000000     0.356230000000     0.0344103  
H595     H      0.852890000000     0.066000000000     0.403880000000     0.0380035  
H596     H      0.906680000000     0.460730000000     0.385860000000     0.038015   
H597     H      0.854810000000     0.463360000000     0.415180000000     0.0380975  
H598     H      0.885540000000     0.486780000000     0.434540000000     0.0351763  
H599     H      0.908300000000     0.063770000000     0.378580000000     0.0385268  
H600     H      0.883350000000     0.048680000000     0.429250000000     0.0341861  
H601     H      0.627910000000     0.038510000000     0.420220000000     0.0356022  
H602     H      0.631070000000     0.474120000000     0.420440000000     0.0348423  
H603     H      0.602560000000     0.455440000000     0.373180000000     0.0377944  
H604     H      0.657080000000     0.059290000000     0.396020000000     0.0382494  
H605     H      0.603430000000     0.058600000000     0.370220000000     0.0377062  
H606     H      0.632910000000     0.037310000000     0.346900000000     0.0332772  
H607     H      0.660090000000     0.456190000000     0.393970000000     0.0382614  
H608     H      0.631040000000     0.474700000000     0.347010000000     0.0344985  
H609     H      0.814030000000     0.254720000000     0.762300000000     0.0340319  
H610     H      0.766570000000     0.210900000000     0.768750000000     0.0369201  
H611     H      0.723090000000     0.231430000000     0.803260000000     0.0339101  
H612     H      0.805340000000     0.288490000000     0.737280000000     0.0350891  
H613     H      0.801360000000     0.298630000000     0.797330000000     0.0356815  
H614     H      0.765920000000     0.308630000000     0.774690000000     0.0347448  
H615     H      0.730700000000     0.217510000000     0.744850000000     0.0338301  
H616     H      0.716530000000     0.264890000000     0.776720000000     0.0372106  
H617     H      0.822610000000     0.020520000000     0.774640000000     0.0333395  
H618     H      0.778140000000     0.472440000000     0.776660000000     0.0369724  
H619     H      0.729930000000     0.488660000000     0.807370000000     0.033417   
H620     H      0.812420000000     0.054200000000     0.750080000000     0.0359617  
H621     H      0.803150000000     0.061380000000     0.810310000000     0.0349668  
H622     H      0.768910000000     0.069420000000     0.785180000000     0.0346636  
H623     H      0.744040000000     0.476860000000     0.749950000000     0.0349735  
H624     H      0.723720000000     0.522560000000     0.781220000000     0.0369101  
H625     H      0.729130000000     0.400880000000     0.859370000000     0.0341704  
H626     H      0.792020000000     0.400110000000     0.855030000000     0.0336901  
H627     H      0.816330000000     0.429090000000     0.899750000000     0.0379551  
H628     H      0.709970000000     0.373880000000     0.887050000000     0.0376323  
H629     H      0.712010000000     0.429700000000     0.907600000000     0.0384714  
H630     H      0.733720000000     0.402260000000     0.932700000000     0.0354942  
H631     H      0.814300000000     0.372810000000     0.879780000000     0.0380684  
H632     H      0.798420000000     0.402080000000     0.928180000000     0.0359715  
H633     H      0.729990000000     0.143740000000     0.870520000000     0.0348449  
H634     H      0.795850000000     0.144150000000     0.869850000000     0.0345019  
H635     H      0.815240000000     0.182320000000     0.909430000000     0.0379603  
H636     H      0.711250000000     0.122330000000     0.902910000000     0.0379267  
H637     H      0.710780000000     0.181380000000     0.910790000000     0.0380799  
H638     H      0.731730000000     0.160320000000     0.942070000000     0.0348007  
H639     H      0.815590000000     0.123170000000     0.901870000000     0.0382836  
H640     H      0.795530000000     0.161020000000     0.941290000000     0.0346597  
H641     H      0.015620000000     0.209760000000     0.740220000000     0.0369588  
H642     H      0.967720000000     0.253290000000     0.733610000000     0.034336   
H643     H      0.979770000000     0.297050000000     0.769110000000     0.0364059  
H644     H      0.551610000000     0.216900000000     0.716640000000     0.033725   
H645     H      0.558660000000     0.230510000000     0.775150000000     0.0347149  
H646     H      0.564960000000     0.264260000000     0.748910000000     0.0374409  
H647     H      0.976420000000     0.287300000000     0.708920000000     0.0350205  
H648     H      0.515360000000     0.307420000000     0.746840000000     0.0347474  
H649     H      0.525830000000     0.061500000000     0.742660000000     0.037604   
H650     H      0.573220000000     0.515300000000     0.741980000000     0.0342121  
H651     H      0.557420000000     0.478820000000     0.783170000000     0.0359993  
H652     H      0.991380000000     0.053400000000     0.717230000000     0.0346097  
H653     H      0.978620000000     0.045210000000     0.775030000000     0.0349452  
H654     H      0.974770000000     0.008710000000     0.752160000000     0.0361924  
H655     H      0.562830000000     0.479130000000     0.721480000000     0.0359023  
H656     H      0.023140000000     0.465240000000     0.760700000000     0.0338215  
H657     H      0.987170000000     0.395950000000     0.832160000000     0.0344198  
H658     H      0.550810000000     0.396500000000     0.838200000000     0.0347503  
H659     H      0.566100000000     0.425000000000     0.887320000000     0.0383003  
H660     H      0.964580000000     0.368360000000     0.856300000000     0.0382827  
H661     H      0.961980000000     0.424260000000     0.877030000000     0.0379735  
H662     H      0.979890000000     0.397040000000     0.905260000000     0.0353191  
H663     H      0.568690000000     0.369230000000     0.866420000000     0.0377169  
H664     H      0.543340000000     0.397400000000     0.911310000000     0.0348306  
H665     H      0.485000000000     0.140320000000     0.832570000000     0.0346662  
H666     H      0.549340000000     0.139800000000     0.835210000000     0.0348238  
H667     H      0.567850000000     0.175450000000     0.877620000000     0.0382215  
H668     H      0.963480000000     0.117690000000     0.862270000000     0.0382717  
H669     H      0.963480000000     0.176280000000     0.873260000000     0.0382063  
H670     H      0.981820000000     0.153340000000     0.904760000000     0.0350882  
H671     H      0.567860000000     0.116840000000     0.866650000000     0.038011   
H672     H      0.046530000000     0.152800000000     0.907470000000     0.0350848  
H673     H      0.814220000000     0.239240000000     0.257490000000     0.0378543  
H674     H      0.764480000000     0.195950000000     0.252880000000     0.0338908  
H675     H      0.730420000000     0.208570000000     0.297130000000     0.035909   
H676     H      0.807730000000     0.276460000000     0.236530000000     0.0352031  
H677     H      0.802020000000     0.282550000000     0.295720000000     0.033912   
H678     H      0.764930000000     0.291730000000     0.274720000000     0.0378923  
H679     H      0.728000000000     0.210870000000     0.235270000000     0.036344   
H680     H      0.717510000000     0.245370000000     0.279470000000     0.0336837  
H681     H      0.733370000000     0.310500000000     0.022810000000     0.0345308  
H682     H      0.795440000000     0.308370000000     0.022340000000     0.0347422  
H683     H      0.815660000000     0.256860000000     0.042530000000     0.0377203  
H684     H      0.711150000000     0.289630000000     0.992280000000     0.0383638  
H685     H      0.711030000000     0.260990000000     0.044950000000     0.0377258  
H686     H      0.729310000000     0.237890000000     0.013480000000     0.0353799  
H687     H      0.815710000000     0.286720000000     0.991010000000     0.0383731  
H688     H      0.794090000000     0.235840000000     0.011700000000     0.0355456  
H689     H      0.811610000000     0.507360000000     0.292840000000     0.0338126  
H690     H      0.765650000000     0.053420000000     0.284740000000     0.0371621  
H691     H      0.722210000000     0.036370000000     0.247970000000     0.0346788  
H692     H      0.798770000000     0.472120000000     0.313590000000     0.0354641  
H693     H      0.800560000000     0.469270000000     0.251760000000     0.036276   
H694     H      0.763980000000     0.456370000000     0.270750000000     0.0339441  
H695     H      0.728300000000     0.047100000000     0.306410000000     0.0341864  
H696     H      0.714800000000     0.001140000000     0.271890000000     0.0367177  
H697     H      0.733680000000     0.475790000000     0.027910000000     0.0350851  
H698     H      0.797890000000     0.477260000000     0.029130000000     0.0349802  
H699     H      0.816630000000     0.025270000000     0.001570000000     0.0374987  
H700     H      0.712340000000     0.500260000000     0.056230000000     0.0377498  
H701     H      0.712100000000     0.523510000000     0.001440000000     0.0378787  
H702     H      0.731840000000     0.049050000000     0.030040000000     0.036114   
H703     H      0.816820000000     0.003570000000     0.057520000000     0.0372466  
H704     H      0.796010000000     0.050510000000     0.029710000000     0.0345715  
H705     H      0.728640000000     0.380470000000     0.187450000000     0.0346066  
H706     H      0.792710000000     0.379100000000     0.187200000000     0.0339961  
H707     H      0.814300000000     0.346870000000     0.143240000000     0.0379847  
H708     H      0.708990000000     0.403360000000     0.156650000000     0.0379972  
H709     H      0.710010000000     0.343810000000     0.146720000000     0.0383313  
H710     H      0.727530000000     0.367360000000     0.115260000000     0.0343541  
H711     H      0.813470000000     0.403630000000     0.158490000000     0.0381295  
H712     H      0.793080000000     0.370750000000     0.114220000000     0.0356933  
H713     H      0.802750000000     0.126360000000     0.108920000000     0.0343974  
H714     H      0.739700000000     0.125180000000     0.103220000000     0.03478    
H715     H      0.713520000000     0.097600000000     0.148230000000     0.0377123  
H716     H      0.820130000000     0.152770000000     0.138260000000     0.038045   
H717     H      0.817830000000     0.095310000000     0.155870000000     0.038366   
H718     H      0.796580000000     0.122180000000     0.181990000000     0.035017   
H719     H      0.716160000000     0.152540000000     0.126770000000     0.0381369  
H720     H      0.732070000000     0.124570000000     0.176280000000     0.0346939  
H721     H      0.006050000000     0.191330000000     0.232330000000     0.0342808  
H722     H      0.958040000000     0.234370000000     0.236370000000     0.0367625  
H723     H      0.973520000000     0.280480000000     0.269730000000     0.0336316  
H724     H      0.540680000000     0.202290000000     0.208830000000     0.0352802  
H725     H      0.547030000000     0.207990000000     0.269600000000     0.0355787  
H726     H      0.556050000000     0.243020000000     0.246560000000     0.034623   
H727     H      0.962120000000     0.269670000000     0.211710000000     0.0349448  
H728     H      0.508040000000     0.288370000000     0.244330000000     0.0374091  
H729     H      0.980210000000     0.232420000000     0.989970000000     0.0361322  
H730     H      0.546020000000     0.234350000000     0.993350000000     0.0358042  
H731     H      0.564820000000     0.282560000000     0.966060000000     0.0374681  
H732     H      0.958630000000     0.257920000000     0.017180000000     0.0384784  
H733     H      0.960380000000     0.279980000000     0.961890000000     0.0373643  
H734     H      0.979570000000     0.305690000000     0.990680000000     0.0343675  
H735     H      0.562950000000     0.261560000000     0.022130000000     0.0381993  
H736     H      0.542100000000     0.307530000000     0.992900000000     0.0342803  
H737     H      0.001490000000     0.048400000000     0.250820000000     0.0364643  
H738     H      0.954510000000     0.502940000000     0.257450000000     0.0337441  
H739     H      0.968220000000     0.463120000000     0.218770000000     0.0355507  
H740     H      0.537050000000     0.042670000000     0.275420000000     0.0332307  
H741     H      0.547460000000     0.029430000000     0.218120000000     0.0354674  
H742     H      0.552410000000     0.995060000000     0.243850000000     0.0419988  
H743     H      0.965530000000     0.468520000000     0.280470000000     0.0355527  
H744     H      0.503260000000     0.450910000000     0.240850000000     0.0339884  
H745     H      0.979810000000     0.554730000000     0.998430000000     0.0343974  
H746     H      0.042610000000     0.053640000000     0.000480000000     0.0338977  
H747     H      0.562400000000     0.005040000000     0.026760000000     0.03879    
H748     H      0.959460000000     0.530040000000     0.969590000000     0.0374933  
H749     H      0.957880000000     0.507740000000     0.025280000000     0.0382519  
H750     H      0.477210000000     0.481510000000     0.997080000000     0.0358784  
H751     H      0.563990000000     0.028930000000     0.972310000000     0.0363466  
H752     H      0.542480000000     0.980390000000     0.997580000000     0.0401822  
H753     H      0.539520000000     0.363360000000     0.160650000000     0.0343848  
H754     H      0.975580000000     0.366500000000     0.155290000000     0.0340838  
H755     H      0.959070000000     0.401390000000     0.111000000000     0.0385239  
H756     H      0.561030000000     0.340960000000     0.130760000000     0.0380476  
H757     H      0.562830000000     0.400760000000     0.122840000000     0.0378993  
H758     H      0.546860000000     0.379000000000     0.089270000000     0.0348343  
H759     H      0.956830000000     0.343900000000     0.123740000000     0.037749   
H760     H      0.982110000000     0.378040000000     0.083040000000     0.0356582  
H761     H      0.533560000000     0.122610000000     0.077140000000     0.0350666  
H762     H      0.970280000000     0.123660000000     0.080910000000     0.0346835  
H763     H      0.953910000000     0.092920000000     0.127740000000     0.0379865  
H764     H      0.556240000000     0.150280000000     0.101140000000     0.0382523  
H765     H      0.558400000000     0.095590000000     0.123380000000     0.03756    
H766     H      0.538670000000     0.122730000000     0.150430000000     0.0343441  
H767     H      0.951970000000     0.150260000000     0.109470000000     0.0379963  
H768     H      0.974360000000     0.120080000000     0.154170000000     0.0346758  
H769     H      0.894400000000     0.716150000000     0.671200000000     0.0342825  
H770     H      0.896290000000     0.778580000000     0.667200000000     0.0338262  
H771     H      0.917280000000     0.797110000000     0.614930000000     0.038434   
H772     H      0.864230000000     0.695260000000     0.648320000000     0.0375494  
H773     H      0.919800000000     0.694080000000     0.623350000000     0.0380717  
H774     H      0.889360000000     0.711540000000     0.598070000000     0.0347196  
H775     H      0.865530000000     0.798550000000     0.644290000000     0.0378822  
H776     H      0.886750000000     0.774350000000     0.594450000000     0.0357158  
H777     H      0.641600000000     0.785650000000     0.594630000000     0.0345491  
H778     H      0.644180000000     0.722630000000     0.592600000000     0.035622   
H779     H      0.668790000000     0.699910000000     0.641290000000     0.0384561  
H780     H      0.612810000000     0.803620000000     0.621370000000     0.0377934  
H781     H      0.670070000000     0.803180000000     0.642440000000     0.0380213  
H782     H      0.641430000000     0.783400000000     0.668020000000     0.0346813  
H783     H      0.615080000000     0.700520000000     0.615650000000     0.0383578  
H784     H      0.639460000000     0.719990000000     0.665890000000     0.03477    
H785     H      0.906090000000     0.980710000000     0.676040000000     0.0356451  
H786     H      0.907590000000     0.543970000000     0.672790000000     0.0344447  
H787     H      0.930690000000     0.562740000000     0.621710000000     0.038244   
H788     H      0.876870000000     0.960280000000     0.651620000000     0.037768   
H789     H      0.933450000000     0.959740000000     0.628880000000     0.0376883  
H790     H      0.903850000000     0.977250000000     0.602730000000     0.035036   
H791     H      0.877540000000     0.563520000000     0.648650000000     0.0384396  
H792     H      0.901090000000     0.540200000000     0.599680000000     0.0357795  
H793     H      0.656790000000     0.551100000000     0.604830000000     0.0346172  
H794     H      0.659070000000     0.488110000000     0.602230000000     0.0355072  
H795     H      0.680770000000     0.964680000000     0.652100000000     0.0379094  
H796     H      0.626620000000     0.569000000000     0.630140000000     0.0379233  
H797     H      0.682440000000     0.567980000000     0.654600000000     0.0377221  
H798     H      0.652340000000     0.047680000000     0.678070000000     0.0339978  
H799     H      0.628620000000     0.965900000000     0.623360000000     0.0384352  
H800     H      0.650270000000     0.984930000000     0.675120000000     0.0352756  
H801     H      0.801770000000     0.714690000000     0.526910000000     0.0349664  
H802     H      0.801320000000     0.778840000000     0.525340000000     0.0348366  
H803     H      0.759020000000     0.797980000000     0.489390000000     0.0380388  
H804     H      0.770110000000     0.695620000000     0.549350000000     0.0379643  
H805     H      0.761100000000     0.694910000000     0.489970000000     0.0378968  
H806     H      0.729120000000     0.713930000000     0.512010000000     0.0346993  
H807     H      0.770140000000     0.798690000000     0.547780000000     0.0380674  
H808     H      0.728300000000     0.777900000000     0.512250000000     0.0351052  
H809     H      0.800950000000     0.981820000000     0.528860000000     0.0360301  
H810     H      0.799620000000     0.045660000000     0.528550000000     0.0350124  
H811     H      0.750210000000     0.563980000000     0.501860000000     0.0383016  
H812     H      0.775990000000     0.961720000000     0.557750000000     0.0377599  
H813     H      0.752200000000     0.960740000000     0.502910000000     0.0378173  
H814     H      0.726760000000     0.480930000000     0.531370000000     0.0347252  
H815     H      0.773540000000     0.564960000000     0.557050000000     0.037966   
H816     H      0.725450000000     0.543450000000     0.530620000000     0.0347453  
H817     H      0.556380000000     0.778440000000     0.483880000000     0.034828   
H818     H      0.556060000000     0.715150000000     0.484020000000     0.0344413  
H819     H      0.514960000000     0.695910000000     0.520900000000     0.0380448  
H820     H      0.025530000000     0.798500000000     0.461160000000     0.0378087  
H821     H      0.014830000000     0.799010000000     0.519760000000     0.0383033  
H822     H      0.983440000000     0.779430000000     0.497360000000     0.0352597  
H823     H      0.524670000000     0.695340000000     0.461830000000     0.0378511  
H824     H      0.983290000000     0.714880000000     0.498360000000     0.0355316  
H825     H      0.889050000000     0.709310000000     0.418930000000     0.0345292  
H826     H      0.891620000000     0.771850000000     0.422540000000     0.0351983  
H827     H      0.918110000000     0.795740000000     0.375620000000     0.038079   
H828     H      0.861110000000     0.691830000000     0.391000000000     0.0383252  
H829     H      0.919050000000     0.692610000000     0.371860000000     0.0381234  
H830     H      0.891250000000     0.712670000000     0.345620000000     0.0352677  
H831     H      0.863380000000     0.794720000000     0.399170000000     0.0382067  
H832     H      0.889500000000     0.776900000000     0.349270000000     0.0347956  
H833     H      0.637410000000     0.783380000000     0.408910000000     0.034824   
H834     H      0.634900000000     0.719950000000     0.410790000000     0.035964   
H835     H      0.614480000000     0.697340000000     0.359780000000     0.0377205  
H836     H      0.668150000000     0.801310000000     0.384340000000     0.0381425  
H837     H      0.612870000000     0.800670000000     0.358670000000     0.0382668  
H838     H      0.643340000000     0.780210000000     0.335770000000     0.034393   
H839     H      0.665800000000     0.698070000000     0.389920000000     0.0381024  
H840     H      0.645420000000     0.718330000000     0.338050000000     0.0335965  
H841     H      0.057060000000     0.979080000000     0.500510000000     0.0355832  
H842     H      0.557950000000     0.042110000000     0.498670000000     0.0343768  
H843     H      0.511050000000     0.562460000000     0.469460000000     0.038073   
H844     H      0.029630000000     0.960190000000     0.528020000000     0.0377333  
H845     H      0.010020000000     0.459270000000     0.471390000000     0.0380598  
H846     H      0.982900000000     0.479620000000     0.498110000000     0.0350826  
H847     H      0.531600000000     0.063370000000     0.525450000000     0.0382729  
H848     H      0.483760000000     0.543620000000     0.497150000000     0.0354085  
H849     H      0.875740000000     0.979380000000     0.362060000000     0.0351869  
H850     H      0.877730000000     0.542970000000     0.356230000000     0.0349299  
H851     H      0.852890000000     0.566000000000     0.403880000000     0.0379313  
H852     H      0.906680000000     0.960730000000     0.385860000000     0.0378615  
H853     H      0.854810000000     0.963350000000     0.415180000000     0.037954   
H854     H      0.885540000000     0.986780000000     0.434540000000     0.0360303  
H855     H      0.908300000000     0.563770000000     0.378580000000     0.0384731  
H856     H      0.883350000000     0.548680000000     0.429250000000     0.0347027  
H857     H      0.627910000000     0.538500000000     0.420220000000     0.0361686  
H858     H      0.631070000000     0.974120000000     0.420440000000     0.0354855  
H859     H      0.602560000000     0.955440000000     0.373180000000     0.0376769  
H860     H      0.657080000000     0.559290000000     0.396020000000     0.0381852  
H861     H      0.603430000000     0.558600000000     0.370220000000     0.0376469  
H862     H      0.632910000000     0.537310000000     0.346900000000     0.0338335  
H863     H      0.660090000000     0.956190000000     0.393970000000     0.0381656  
H864     H      0.631040000000     0.974700000000     0.347010000000     0.0352804  
H865     H      0.814030000000     0.754720000000     0.762300000000     0.0340276  
H866     H      0.766570000000     0.710900000000     0.768750000000     0.0369083  
H867     H      0.723090000000     0.731430000000     0.803260000000     0.0339117  
H868     H      0.805340000000     0.788490000000     0.737280000000     0.0351169  
H869     H      0.801360000000     0.798630000000     0.797330000000     0.0357296  
H870     H      0.765920000000     0.808630000000     0.774690000000     0.0348013  
H871     H      0.730700000000     0.717510000000     0.744850000000     0.0338199  
H872     H      0.716530000000     0.764890000000     0.776720000000     0.0372171  
H873     H      0.822610000000     0.520520000000     0.774640000000     0.0343385  
H874     H      0.778140000000     0.972440000000     0.776660000000     0.0362533  
H875     H      0.729930000000     0.988660000000     0.807370000000     0.0384962  
H876     H      0.812420000000     0.554200000000     0.750080000000     0.0360877  
H877     H      0.803150000000     0.561380000000     0.810310000000     0.0349445  
H878     H      0.768910000000     0.569420000000     0.785180000000     0.0345152  
H879     H      0.744040000000     0.976860000000     0.749950000000     0.0340797  
H880     H      0.723720000000     0.022560000000     0.781220000000     0.0381766  
H881     H      0.729130000000     0.900880000000     0.859370000000     0.0344317  
H882     H      0.792020000000     0.900110000000     0.855030000000     0.0340086  
H883     H      0.816330000000     0.929090000000     0.899750000000     0.0385256  
H884     H      0.709970000000     0.873880000000     0.887050000000     0.0377784  
H885     H      0.712010000000     0.929690000000     0.907600000000     0.0390104  
H886     H      0.733720000000     0.902260000000     0.932700000000     0.0358009  
H887     H      0.814300000000     0.872820000000     0.879780000000     0.0382297  
H888     H      0.798420000000     0.902080000000     0.928180000000     0.0362674  
H889     H      0.729990000000     0.643740000000     0.870520000000     0.0348571  
H890     H      0.795850000000     0.644150000000     0.869850000000     0.0344991  
H891     H      0.815240000000     0.682320000000     0.909430000000     0.0379599  
H892     H      0.711250000000     0.622330000000     0.902910000000     0.0379878  
H893     H      0.710780000000     0.681380000000     0.910790000000     0.0380848  
H894     H      0.731730000000     0.660320000000     0.942070000000     0.0348118  
H895     H      0.815590000000     0.623170000000     0.901870000000     0.0383268  
H896     H      0.795530000000     0.661020000000     0.941290000000     0.0346684  
H897     H      0.015620000000     0.709760000000     0.740220000000     0.0369425  
H898     H      0.967720000000     0.753290000000     0.733610000000     0.0343298  
H899     H      0.979770000000     0.797050000000     0.769110000000     0.0364439  
H900     H      0.551610000000     0.716900000000     0.716640000000     0.0337153  
H901     H      0.558660000000     0.730510000000     0.775150000000     0.034697   
H902     H      0.564960000000     0.764260000000     0.748910000000     0.0374468  
H903     H      0.976420000000     0.787300000000     0.708920000000     0.0350503  
H904     H      0.515360000000     0.807420000000     0.746840000000     0.0347966  
H905     H      0.525830000000     0.561500000000     0.742660000000     0.0376911  
H906     H      0.573220000000     0.015300000000     0.741980000000     0.0299732  
H907     H      0.557420000000     0.978820000000     0.783170000000     0.0371062  
H908     H      0.991380000000     0.553400000000     0.717230000000     0.0346764  
H909     H      0.978620000000     0.545210000000     0.775030000000     0.0350597  
H910     H      0.974770000000     0.508710000000     0.752160000000     0.0373547  
H911     H      0.562830000000     0.979130000000     0.721480000000     0.0350872  
H912     H      0.023140000000     0.965240000000     0.760700000000     0.0344157  
H913     H      0.987170000000     0.895950000000     0.832160000000     0.0347361  
H914     H      0.550810000000     0.896500000000     0.838200000000     0.0350011  
H915     H      0.566100000000     0.925000000000     0.887320000000     0.0388145  
H916     H      0.964580000000     0.868370000000     0.856300000000     0.0384275  
H917     H      0.961980000000     0.924260000000     0.877030000000     0.0385162  
H918     H      0.979890000000     0.897040000000     0.905260000000     0.0355836  
H919     H      0.568690000000     0.869230000000     0.866420000000     0.0378371  
H920     H      0.543340000000     0.897400000000     0.911310000000     0.0351047  
H921     H      0.485000000000     0.640320000000     0.832570000000     0.0346671  
H922     H      0.549340000000     0.639800000000     0.835210000000     0.0348428  
H923     H      0.567850000000     0.675450000000     0.877620000000     0.0382169  
H924     H      0.963480000000     0.617690000000     0.862270000000     0.0383204  
H925     H      0.963480000000     0.676280000000     0.873260000000     0.0381947  
H926     H      0.981820000000     0.653340000000     0.904760000000     0.0350854  
H927     H      0.567860000000     0.616840000000     0.866650000000     0.0380871  
H928     H      0.046530000000     0.652800000000     0.907470000000     0.0350852  
H929     H      0.814220000000     0.739230000000     0.257490000000     0.0378496  
H930     H      0.764480000000     0.695950000000     0.252880000000     0.0339047  
H931     H      0.730420000000     0.708570000000     0.297130000000     0.0359068  
H932     H      0.807730000000     0.776460000000     0.236530000000     0.0352086  
H933     H      0.802020000000     0.782550000000     0.295720000000     0.0339292  
H934     H      0.764930000000     0.791730000000     0.274720000000     0.03793    
H935     H      0.728000000000     0.710870000000     0.235270000000     0.0363501  
H936     H      0.717510000000     0.745370000000     0.279470000000     0.0336899  
H937     H      0.733370000000     0.810500000000     0.022810000000     0.0346411  
H938     H      0.795440000000     0.808370000000     0.022340000000     0.0348409  
H939     H      0.815660000000     0.756860000000     0.042530000000     0.0377195  
H940     H      0.711150000000     0.789630000000     0.992280000000     0.0384503  
H941     H      0.711030000000     0.761000000000     0.044950000000     0.0377313  
H942     H      0.729310000000     0.737890000000     0.013480000000     0.03536    
H943     H      0.815710000000     0.786720000000     0.991010000000     0.0384501  
H944     H      0.794090000000     0.735840000000     0.011700000000     0.0355228  
H945     H      0.811610000000     0.007360000000     0.292840000000     0.0294275  
H946     H      0.765650000000     0.553420000000     0.284740000000     0.0373652  
H947     H      0.722210000000     0.536370000000     0.247970000000     0.0347761  
H948     H      0.798770000000     0.972120000000     0.313590000000     0.0345963  
H949     H      0.800560000000     0.969270000000     0.251760000000     0.0369355  
H950     H      0.763980000000     0.956370000000     0.270750000000     0.0345423  
H951     H      0.728300000000     0.547100000000     0.306410000000     0.0342857  
H952     H      0.714800000000     0.501140000000     0.271890000000     0.0378219  
H953     H      0.733680000000     0.975790000000     0.027910000000     0.0337193  
H954     H      0.797890000000     0.977260000000     0.029130000000     0.0387162  
H955     H      0.816630000000     0.525270000000     0.001570000000     0.0383303  
H956     H      0.712340000000     0.000260000000     0.056230000000     0.0319432  
H957     H      0.712100000000     0.023510000000     0.001440000000     0.0385144  
H958     H      0.731840000000     0.549050000000     0.030040000000     0.0350498  
H959     H      0.816820000000     0.503570000000     0.057520000000     0.0373343  
H960     H      0.796010000000     0.550510000000     0.029710000000     0.0348171  
H961     H      0.728640000000     0.880470000000     0.187450000000     0.0348286  
H962     H      0.792710000000     0.879100000000     0.187200000000     0.0340817  
H963     H      0.814300000000     0.846870000000     0.143240000000     0.038034   
H964     H      0.708990000000     0.903360000000     0.156650000000     0.0384023  
H965     H      0.710010000000     0.843810000000     0.146720000000     0.0384199  
H966     H      0.727530000000     0.867360000000     0.115260000000     0.0345383  
H967     H      0.813470000000     0.903620000000     0.158490000000     0.0383236  
H968     H      0.793080000000     0.870750000000     0.114220000000     0.0358597  
H969     H      0.802750000000     0.626360000000     0.108920000000     0.0345004  
H970     H      0.739700000000     0.625180000000     0.103220000000     0.0348943  
H971     H      0.713520000000     0.597610000000     0.148230000000     0.0378682  
H972     H      0.820130000000     0.652770000000     0.138260000000     0.0380953  
H973     H      0.817830000000     0.595310000000     0.155870000000     0.0386971  
H974     H      0.796580000000     0.622180000000     0.181990000000     0.0351491  
H975     H      0.716160000000     0.652540000000     0.126770000000     0.0381714  
H976     H      0.732070000000     0.624570000000     0.176280000000     0.0347276  
H977     H      0.006050000000     0.691320000000     0.232330000000     0.0342916  
H978     H      0.958040000000     0.734370000000     0.236370000000     0.0367645  
H979     H      0.973520000000     0.780480000000     0.269730000000     0.0336344  
H980     H      0.540680000000     0.702290000000     0.208830000000     0.035289   
H981     H      0.547030000000     0.707990000000     0.269600000000     0.0355779  
H982     H      0.556050000000     0.743020000000     0.246560000000     0.0346262  
H983     H      0.962120000000     0.769670000000     0.211710000000     0.0349519  
H984     H      0.508040000000     0.788370000000     0.244330000000     0.0374253  
H985     H      0.980210000000     0.732420000000     0.989970000000     0.0361434  
H986     H      0.546020000000     0.734350000000     0.993350000000     0.0358173  
H987     H      0.564820000000     0.782560000000     0.966060000000     0.0375023  
H988     H      0.958630000000     0.757920000000     0.017180000000     0.0384966  
H989     H      0.960380000000     0.779970000000     0.961890000000     0.0373939  
H990     H      0.979570000000     0.805690000000     0.990680000000     0.0344701  
H991     H      0.562950000000     0.761560000000     0.022130000000     0.0382242  
H992     H      0.542100000000     0.807530000000     0.992900000000     0.0343883  
H993     H      0.001490000000     0.548400000000     0.250820000000     0.0373625  
H994     H      0.954510000000     0.002940000000     0.257450000000     0.0290426  
H995     H      0.968220000000     0.963120000000     0.218770000000     0.0365113  
H996     H      0.537050000000     0.542670000000     0.275420000000     0.0340784  
H997     H      0.547460000000     0.529440000000     0.218120000000     0.0347273  
H998     H      0.552410000000     0.495060000000     0.243850000000     0.037279   
H999     H      0.965530000000     0.968520000000     0.280470000000     0.0345296  
H1000    H      0.503260000000     0.950910000000     0.240850000000     0.034674   
H1001    H      0.979810000000     0.054730000000     0.998430000000     0.0341304  
H1002    H      0.042610000000     0.553650000000     0.000480000000     0.034106   
H1003    H      0.562400000000     0.505040000000     0.026760000000     0.0384807  
H1004    H      0.959460000000     0.030040000000     0.969590000000     0.0365471  
H1005    H      0.957880000000     0.007740000000     0.025280000000     0.0385921  
H1006    H      0.477210000000     0.981510000000     0.997080000000     0.0400993  
H1007    H      0.563990000000     0.528930000000     0.972310000000     0.0372947  
H1008    H      0.542480000000     0.480390000000     0.997580000000     0.0359832  
H1009    H      0.539520000000     0.863350000000     0.160650000000     0.03445    
H1010    H      0.975580000000     0.866510000000     0.155290000000     0.0341119  
H1011    H      0.959070000000     0.901380000000     0.111000000000     0.0387663  
H1012    H      0.561030000000     0.840950000000     0.130760000000     0.0381235  
H1013    H      0.562830000000     0.900760000000     0.122840000000     0.0381893  
H1014    H      0.546860000000     0.879000000000     0.089270000000     0.0350678  
H1015    H      0.956830000000     0.843900000000     0.123740000000     0.0377978  
H1016    H      0.982110000000     0.878040000000     0.083040000000     0.0358678  
H1017    H      0.533560000000     0.622610000000     0.077140000000     0.0350904  
H1018    H      0.970280000000     0.623660000000     0.080910000000     0.0347317  
H1019    H      0.953910000000     0.592920000000     0.127740000000     0.0383198  
H1020    H      0.556240000000     0.650280000000     0.101140000000     0.0382769  
H1021    H      0.558400000000     0.595590000000     0.123380000000     0.0377973  
H1022    H      0.538670000000     0.622730000000     0.150430000000     0.0344914  
H1023    H      0.951970000000     0.650260000000     0.109470000000     0.038039   
H1024    H      0.974360000000     0.620080000000     0.154170000000     0.034862   
N1       N      0.421780000000     0.245480000000     0.617580000000    -0.180637   
N2       N      0.361560000000     0.246920000000     0.647550000000    -0.180984   
N3       N      0.172700000000     0.251550000000     0.643770000000    -0.179992   
N4       N      0.110610000000     0.252160000000     0.616920000000    -0.180034   
N5       N      0.435370000000     0.011170000000     0.623620000000    -0.18118    
N6       N      0.373950000000     0.511890000000     0.652050000000    -0.179848   
N7       N      0.184900000000     0.516290000000     0.654870000000    -0.180381   
N8       N      0.124370000000     0.017590000000     0.625050000000    -0.181352   
N9       N      0.258350000000     0.246360000000     0.486130000000    -0.179523   
N10      N      0.272000000000     0.247170000000     0.552110000000    -0.179676   
N11      N      0.250060000000     0.012290000000     0.498990000000    -0.180992   
N12      N      0.277040000000     0.013440000000     0.560570000000    -0.180934   
N13      N      0.512720000000     0.247470000000     0.523830000000    -0.179918   
N14      N      0.026180000000     0.246890000000     0.457980000000    -0.180241   
N15      N      0.421750000000     0.244220000000     0.371170000000    -0.179881   
N16      N      0.358820000000     0.243190000000     0.396250000000    -0.179791   
N17      N      0.110250000000     0.249010000000     0.358500000000    -0.180932   
N18      N      0.170080000000     0.249810000000     0.389170000000    -0.180641   
N19      N      0.008310000000     0.510830000000     0.467200000000    -0.179844   
N20      N      0.032020000000     0.511810000000     0.530090000000    -0.179866   
N21      N      0.350410000000     0.014800000000     0.410550000000    -0.181139   
N22      N      0.410540000000     0.012080000000     0.379760000000    -0.181067   
N23      N      0.099540000000     0.006920000000     0.370420000000    -0.180827   
N24      N      0.161690000000     0.007710000000     0.397810000000    -0.180335   
N25      N      0.260400000000     0.267150000000     0.802790000000    -0.180538   
N26      N      0.269140000000     0.251420000000     0.738590000000    -0.180695   
N27      N      0.264760000000     0.026520000000     0.811250000000    -0.179423   
N28      N      0.280170000000     0.013790000000     0.747510000000    -0.181776   
N29      N      0.264440000000     0.432620000000     0.905840000000    -0.179939   
N30      N      0.261990000000     0.369930000000     0.882780000000    -0.180367   
N31      N      0.262990000000     0.185400000000     0.910820000000    -0.180017   
N32      N      0.263400000000     0.119180000000     0.899970000000    -0.179648   
N33      N      0.520880000000     0.265770000000     0.774680000000    -0.180146   
N34      N      0.512860000000     0.250450000000     0.710290000000    -0.180711   
N35      N      0.016300000000     0.010420000000     0.781790000000    -0.182049   
N36      N      0.029220000000     0.518170000000     0.716720000000    -0.180302   
N37      N      0.013820000000     0.428010000000     0.883450000000    -0.179999   
N38      N      0.016880000000     0.365450000000     0.859930000000    -0.1801     
N39      N      0.015620000000     0.179410000000     0.877140000000    -0.179574   
N40      N      0.015730000000     0.113720000000     0.863070000000    -0.179526   
N41      N      0.264240000000     0.247610000000     0.299460000000    -0.179796   
N42      N      0.269540000000     0.241800000000     0.232790000000    -0.179681   
N43      N      0.263260000000     0.256380000000     0.046630000000    -0.180542   
N44      N      0.263400000000     0.288470000000     0.988150000000    -0.180285   
N45      N      0.259460000000     0.000540000000     0.247040000000    -0.18111    
N46      N      0.265000000000     0.011310000000     0.312790000000    -0.18217    
N47      N      0.264320000000     0.026250000000     0.998210000000    -0.178723   
N48      N      0.264660000000     0.000000000000     0.060170000000    -0.184802   
N49      N      0.262140000000     0.341970000000     0.142480000000    -0.18026    
N50      N      0.261080000000     0.406960000000     0.158750000000    -0.180302   
N51      N      0.265470000000     0.093230000000     0.154110000000    -0.180636   
N52      N      0.268340000000     0.156030000000     0.131720000000    -0.180543   
N53      N      0.012170000000     0.246270000000     0.272080000000    -0.180957   
N54      N      0.500270000000     0.234840000000     0.207660000000    -0.180951   
N55      N      0.512720000000     0.281630000000     0.960530000000    -0.180544   
N56      N      0.510810000000     0.256610000000     0.022610000000    -0.179866   
N57      N      0.009740000000     0.994060000000     0.215770000000    -0.176997   
N58      N      0.999550000000     0.507500000000     0.280560000000    -0.17965    
N59      N      0.009960000000     0.003680000000     0.029070000000    -0.179017   
N60      N      0.011840000000     0.030170000000     0.967500000000    -0.180814   
N61      N      0.511320000000     0.404630000000     0.115050000000    -0.179462   
N62      N      0.008790000000     0.338860000000     0.128460000000    -0.17989    
N63      N      0.506290000000     0.090940000000     0.127420000000    -0.180393   
N64      N      0.003930000000     0.153700000000     0.104370000000    -0.180105   
N65      N      0.421780000000     0.745480000000     0.617580000000    -0.180644   
N66      N      0.361560000000     0.746920000000     0.647550000000    -0.180991   
N67      N      0.172700000000     0.751550000000     0.643770000000    -0.18006    
N68      N      0.110610000000     0.752160000000     0.616920000000    -0.180038   
N69      N      0.435370000000     0.511170000000     0.623620000000    -0.179894   
N70      N      0.373950000000     0.011890000000     0.652050000000    -0.181026   
N71      N      0.184900000000     0.016290000000     0.654870000000    -0.181648   
N72      N      0.124370000000     0.517590000000     0.625050000000    -0.18008    
N73      N      0.258350000000     0.746360000000     0.486130000000    -0.17953    
N74      N      0.272000000000     0.747170000000     0.552110000000    -0.179684   
N75      N      0.250060000000     0.512290000000     0.498990000000    -0.1797     
N76      N      0.277040000000     0.513440000000     0.560570000000    -0.179663   
N77      N      0.512720000000     0.747470000000     0.523830000000    -0.179923   
N78      N      0.026180000000     0.746890000000     0.457980000000    -0.180249   
N79      N      0.421750000000     0.744220000000     0.371170000000    -0.179871   
N80      N      0.358820000000     0.743190000000     0.396250000000    -0.1798     
N81      N      0.110250000000     0.749000000000     0.358500000000    -0.180932   
N82      N      0.170080000000     0.749810000000     0.389170000000    -0.180667   
N83      N      0.008310000000     0.010830000000     0.467200000000    -0.181129   
N84      N      0.032020000000     0.011810000000     0.530090000000    -0.181153   
N85      N      0.350410000000     0.514800000000     0.410550000000    -0.179925   
N86      N      0.410540000000     0.512080000000     0.379760000000    -0.179782   
N87      N      0.099540000000     0.506920000000     0.370420000000    -0.179547   
N88      N      0.161690000000     0.507710000000     0.397810000000    -0.179122   
N89      N      0.260400000000     0.767150000000     0.802790000000    -0.18053    
N90      N      0.269140000000     0.751420000000     0.738590000000    -0.180704   
N91      N      0.264760000000     0.526520000000     0.811250000000    -0.18037    
N92      N      0.280170000000     0.513790000000     0.747510000000    -0.179907   
N93      N      0.264440000000     0.932620000000     0.905840000000    -0.17956    
N94      N      0.261990000000     0.869930000000     0.882780000000    -0.180266   
N95      N      0.262990000000     0.685400000000     0.910820000000    -0.180021   
N96      N      0.263400000000     0.619180000000     0.899970000000    -0.179716   
N97      N      0.520880000000     0.765780000000     0.774680000000    -0.18016    
N98      N      0.512860000000     0.750450000000     0.710290000000    -0.180713   
N99      N      0.016300000000     0.510420000000     0.781790000000    -0.180386   
N100     N      0.029220000000     0.018170000000     0.716720000000    -0.182082   
N101     N      0.013820000000     0.928010000000     0.883450000000    -0.179629   
N102     N      0.016880000000     0.865450000000     0.859930000000    -0.180077   
N103     N      0.015620000000     0.679410000000     0.877140000000    -0.179657   
N104     N      0.015730000000     0.613720000000     0.863070000000    -0.179587   
N105     N      0.264240000000     0.747610000000     0.299460000000    -0.179794   
N106     N      0.269540000000     0.741800000000     0.232790000000    -0.179684   
N107     N      0.263260000000     0.756380000000     0.046630000000    -0.180549   
N108     N      0.263400000000     0.788470000000     0.988150000000    -0.180224   
N109     N      0.259460000000     0.500540000000     0.247040000000    -0.180064   
N110     N      0.265000000000     0.511310000000     0.312790000000    -0.180375   
N111     N      0.264320000000     0.526250000000     0.998210000000    -0.178973   
N112     N      0.264660000000     0.500000000000     0.060170000000    -0.179439   
N113     N      0.262140000000     0.841970000000     0.142480000000    -0.180249   
N114     N      0.261080000000     0.906960000000     0.158750000000    -0.180144   
N115     N      0.265470000000     0.593230000000     0.154110000000    -0.180503   
N116     N      0.268340000000     0.656030000000     0.131720000000    -0.180544   
N117     N      0.012170000000     0.746270000000     0.272080000000    -0.181019   
N118     N      0.500270000000     0.734840000000     0.207660000000    -0.180961   
N119     N      0.512720000000     0.781640000000     0.960530000000    -0.180526   
N120     N      0.510810000000     0.756620000000     0.022610000000    -0.179845   
N121     N      0.009740000000     0.494060000000     0.215770000000    -0.179954   
N122     N      0.999550000000     0.007500000000     0.280560000000    -0.182043   
N123     N      0.009960000000     0.503680000000     0.029070000000    -0.179557   
N124     N      0.011840000000     0.530170000000     0.967500000000    -0.180222   
N125     N      0.511320000000     0.904630000000     0.115050000000    -0.179488   
N126     N      0.008790000000     0.838860000000     0.128460000000    -0.179887   
N127     N      0.506290000000     0.590940000000     0.127420000000    -0.180051   
N128     N      0.003930000000     0.653700000000     0.104370000000    -0.18012    
N129     N      0.921780000000     0.245480000000     0.617580000000    -0.18062    
N130     N      0.861570000000     0.246920000000     0.647550000000    -0.180897   
N131     N      0.672700000000     0.251550000000     0.643770000000    -0.17999    
N132     N      0.610610000000     0.252160000000     0.616920000000    -0.180044   
N133     N      0.935370000000     0.011170000000     0.623620000000    -0.18116    
N134     N      0.873950000000     0.511890000000     0.652050000000    -0.179859   
N135     N      0.684900000000     0.516290000000     0.654870000000    -0.180374   
N136     N      0.624370000000     0.017590000000     0.625050000000    -0.181357   
N137     N      0.758350000000     0.246360000000     0.486130000000    -0.179524   
N138     N      0.772000000000     0.247170000000     0.552110000000    -0.179676   
N139     N      0.750060000000     0.012290000000     0.498990000000    -0.180999   
N140     N      0.777040000000     0.013440000000     0.560570000000    -0.180936   
N141     N      0.012730000000     0.247470000000     0.523830000000    -0.179868   
N142     N      0.526180000000     0.246890000000     0.457980000000    -0.180206   
N143     N      0.921750000000     0.244220000000     0.371170000000    -0.179865   
N144     N      0.858810000000     0.243190000000     0.396250000000    -0.179879   
N145     N      0.610240000000     0.249010000000     0.358500000000    -0.180948   
N146     N      0.670080000000     0.249810000000     0.389170000000    -0.180645   
N147     N      0.508310000000     0.510830000000     0.467200000000    -0.179893   
N148     N      0.532020000000     0.511810000000     0.530090000000    -0.17983    
N149     N      0.850410000000     0.014800000000     0.410550000000    -0.181134   
N150     N      0.910550000000     0.012080000000     0.379760000000    -0.181133   
N151     N      0.599540000000     0.006920000000     0.370420000000    -0.180834   
N152     N      0.661690000000     0.007710000000     0.397810000000    -0.180336   
N153     N      0.760400000000     0.267150000000     0.802790000000    -0.180542   
N154     N      0.769140000000     0.251420000000     0.738590000000    -0.180687   
N155     N      0.764760000000     0.026520000000     0.811250000000    -0.179415   
N156     N      0.780170000000     0.013790000000     0.747510000000    -0.181778   
N157     N      0.764440000000     0.432620000000     0.905840000000    -0.17994    
N158     N      0.761990000000     0.369930000000     0.882780000000    -0.180368   
N159     N      0.762990000000     0.185400000000     0.910820000000    -0.180012   
N160     N      0.763400000000     0.119180000000     0.899970000000    -0.179664   
N161     N      0.020880000000     0.265770000000     0.774680000000    -0.18006    
N162     N      0.012860000000     0.250450000000     0.710290000000    -0.180849   
N163     N      0.516300000000     0.010420000000     0.781790000000    -0.181944   
N164     N      0.529220000000     0.518170000000     0.716720000000    -0.180354   
N165     N      0.513820000000     0.428010000000     0.883450000000    -0.179922   
N166     N      0.516880000000     0.365450000000     0.859930000000    -0.180033   
N167     N      0.515620000000     0.179410000000     0.877140000000    -0.1795     
N168     N      0.515730000000     0.113720000000     0.863070000000    -0.179457   
N169     N      0.764240000000     0.247610000000     0.299460000000    -0.179796   
N170     N      0.769540000000     0.241800000000     0.232790000000    -0.179679   
N171     N      0.763260000000     0.256380000000     0.046630000000    -0.180541   
N172     N      0.763400000000     0.288470000000     0.988150000000    -0.180286   
N173     N      0.759460000000     0.000540000000     0.247040000000    -0.181101   
N174     N      0.765000000000     0.011310000000     0.312790000000    -0.182178   
N175     N      0.764320000000     0.026250000000     0.998210000000    -0.178723   
N176     N      0.764660000000     0.000000000000     0.060170000000    -0.184854   
N177     N      0.762140000000     0.341970000000     0.142480000000    -0.180179   
N178     N      0.761080000000     0.406960000000     0.158750000000    -0.180302   
N179     N      0.765470000000     0.093230000000     0.154110000000    -0.18063    
N180     N      0.768340000000     0.156030000000     0.131720000000    -0.180538   
N181     N      0.512170000000     0.246270000000     0.272080000000    -0.180821   
N182     N      0.000270000000     0.234840000000     0.207660000000    -0.181007   
N183     N      0.012720000000     0.281630000000     0.960530000000    -0.180552   
N184     N      0.010810000000     0.256610000000     0.022610000000    -0.179942   
N185     N      0.509740000000     0.994060000000     0.215770000000    -0.176881   
N186     N      0.499550000000     0.507500000000     0.280560000000    -0.179968   
N187     N      0.509960000000     0.003680000000     0.029070000000    -0.17901    
N188     N      0.511840000000     0.030170000000     0.967500000000    -0.180742   
N189     N      0.011320000000     0.404630000000     0.115050000000    -0.17953    
N190     N      0.508790000000     0.338860000000     0.128460000000    -0.179818   
N191     N      0.006290000000     0.090940000000     0.127420000000    -0.180398   
N192     N      0.503930000000     0.153700000000     0.104370000000    -0.180031   
N193     N      0.921780000000     0.745480000000     0.617580000000    -0.180626   
N194     N      0.861570000000     0.746920000000     0.647550000000    -0.180903   
N195     N      0.672700000000     0.751550000000     0.643770000000    -0.180058   
N196     N      0.610610000000     0.752160000000     0.616920000000    -0.180049   
N197     N      0.935370000000     0.511170000000     0.623620000000    -0.179874   
N198     N      0.873950000000     0.011890000000     0.652050000000    -0.181036   
N199     N      0.684900000000     0.016290000000     0.654870000000    -0.181642   
N200     N      0.624370000000     0.517590000000     0.625050000000    -0.180085   
N201     N      0.758350000000     0.746360000000     0.486130000000    -0.17953    
N202     N      0.772000000000     0.747170000000     0.552110000000    -0.179683   
N203     N      0.750060000000     0.512290000000     0.498990000000    -0.179708   
N204     N      0.777040000000     0.513440000000     0.560570000000    -0.179665   
N205     N      0.012730000000     0.747470000000     0.523830000000    -0.179873   
N206     N      0.526180000000     0.746890000000     0.457980000000    -0.180213   
N207     N      0.921750000000     0.744220000000     0.371170000000    -0.179855   
N208     N      0.858810000000     0.743190000000     0.396250000000    -0.179888   
N209     N      0.610240000000     0.749000000000     0.358500000000    -0.180948   
N210     N      0.670080000000     0.749810000000     0.389170000000    -0.18067    
N211     N      0.508310000000     0.010830000000     0.467200000000    -0.181178   
N212     N      0.532020000000     0.011810000000     0.530090000000    -0.181117   
N213     N      0.850410000000     0.514800000000     0.410550000000    -0.179921   
N214     N      0.910550000000     0.512080000000     0.379760000000    -0.17985    
N215     N      0.599540000000     0.506920000000     0.370420000000    -0.179554   
N216     N      0.661690000000     0.507710000000     0.397810000000    -0.179123   
N217     N      0.760400000000     0.767150000000     0.802790000000    -0.180533   
N218     N      0.769140000000     0.751420000000     0.738590000000    -0.180697   
N219     N      0.764760000000     0.526520000000     0.811250000000    -0.180361   
N220     N      0.780170000000     0.513790000000     0.747510000000    -0.179909   
N221     N      0.764440000000     0.932620000000     0.905840000000    -0.17956    
N222     N      0.761990000000     0.869930000000     0.882780000000    -0.180267   
N223     N      0.762990000000     0.685400000000     0.910820000000    -0.180016   
N224     N      0.763400000000     0.619180000000     0.899970000000    -0.179732   
N225     N      0.020880000000     0.765780000000     0.774680000000    -0.180075   
N226     N      0.012860000000     0.750450000000     0.710290000000    -0.180851   
N227     N      0.516300000000     0.510420000000     0.781790000000    -0.18028    
N228     N      0.529220000000     0.018170000000     0.716720000000    -0.182134   
N229     N      0.513820000000     0.928010000000     0.883450000000    -0.179553   
N230     N      0.516880000000     0.865450000000     0.859930000000    -0.18001    
N231     N      0.515620000000     0.679410000000     0.877140000000    -0.179582   
N232     N      0.515730000000     0.613720000000     0.863070000000    -0.179518   
N233     N      0.764240000000     0.747610000000     0.299460000000    -0.179795   
N234     N      0.769540000000     0.741800000000     0.232790000000    -0.179683   
N235     N      0.763260000000     0.756380000000     0.046630000000    -0.180548   
N236     N      0.763400000000     0.788470000000     0.988150000000    -0.180225   
N237     N      0.759460000000     0.500540000000     0.247040000000    -0.180054   
N238     N      0.765000000000     0.511310000000     0.312790000000    -0.180384   
N239     N      0.764320000000     0.526250000000     0.998210000000    -0.178973   
N240     N      0.764660000000     0.500000000000     0.060170000000    -0.179491   
N241     N      0.762140000000     0.841970000000     0.142480000000    -0.180167   
N242     N      0.761080000000     0.906960000000     0.158750000000    -0.180144   
N243     N      0.765470000000     0.593230000000     0.154110000000    -0.180496   
N244     N      0.768340000000     0.656030000000     0.131720000000    -0.180539   
N245     N      0.512170000000     0.746270000000     0.272080000000    -0.180884   
N246     N      0.000270000000     0.734840000000     0.207660000000    -0.181017   
N247     N      0.012720000000     0.781640000000     0.960530000000    -0.180534   
N248     N      0.010810000000     0.756620000000     0.022610000000    -0.179921   
N249     N      0.509740000000     0.494060000000     0.215770000000    -0.179837   
N250     N      0.499550000000     0.007500000000     0.280560000000    -0.18236    
N251     N      0.509960000000     0.503680000000     0.029070000000    -0.179549   
N252     N      0.511840000000     0.530170000000     0.967500000000    -0.18015    
N253     N      0.011320000000     0.904630000000     0.115050000000    -0.179556   
N254     N      0.508790000000     0.838860000000     0.128460000000    -0.179815   
N255     N      0.006290000000     0.590940000000     0.127420000000    -0.180057   
N256     N      0.503930000000     0.653700000000     0.104370000000    -0.180045   
O1       O      0.037460000000     0.453010000000     0.121020000000    -0.553821   
O2       O      0.034730000000     0.043910000000     0.123950000000    -0.561853   
O3       O      0.036270000000     0.497880000000     0.167950000000    -0.560342   
O4       O      0.036420000000     0.000070000000     0.077220000000    -0.564364   
O5       O      0.482430000000     0.500870000000     0.076980000000    -0.553943   
O6       O      0.482450000000     0.992460000000     0.167930000000    -0.553393   
O7       O      0.480820000000     0.042110000000     0.126370000000    -0.560924   
O8       O      0.483540000000     0.451890000000     0.118330000000    -0.560582   
O9       O      0.480670000000     0.292540000000     0.118590000000    -0.558744   
O10      O      0.477780000000     0.202060000000     0.109840000000    -0.555406   
O11      O      0.476470000000     0.243750000000     0.159220000000    -0.562542   
O12      O      0.481530000000     0.251580000000     0.069000000000    -0.561645   
O13      O      0.035450000000     0.252170000000     0.071820000000    -0.557062   
O14      O      0.030190000000     0.237790000000     0.161620000000    -0.556919   
O15      O      0.031760000000     0.200700000000     0.109750000000    -0.561479   
O16      O      0.034350000000     0.290220000000     0.123880000000    -0.557173   
O17      O      0.234620000000     0.455330000000     0.155260000000    -0.555937   
O18      O      0.237220000000     0.046080000000     0.151430000000    -0.558654   
O19      O      0.236860000000     0.499080000000     0.107760000000    -0.560176   
O20      O      0.234430000000     0.003230000000     0.198420000000    -0.558468   
O21      O      0.288250000000     0.497910000000     0.200200000000    -0.55423    
O22      O      0.290840000000     0.000010000000     0.108950000000    -0.563018   
O23      O      0.291050000000     0.044550000000     0.155470000000    -0.564175   
O24      O      0.288600000000     0.454140000000     0.154160000000    -0.563794   
O25      O      0.291370000000     0.251780000000     0.093730000000    -0.562815   
O26      O      0.294290000000     0.248630000000     0.184370000000    -0.560677   
O27      O      0.294250000000     0.204460000000     0.137050000000    -0.557277   
O28      O      0.290930000000     0.295130000000     0.140680000000    -0.560996   
O29      O      0.237110000000     0.292980000000     0.144570000000    -0.559244   
O30      O      0.240270000000     0.202940000000     0.135970000000    -0.563575   
O31      O      0.240530000000     0.242850000000     0.185920000000    -0.553881   
O32      O      0.237390000000     0.252220000000     0.095230000000    -0.557204   
O33      O      0.040150000000     0.526480000000     0.920230000000    -0.55736    
O34      O      0.042430000000     0.013790000000     0.830030000000    -0.555976   
O35      O      0.042000000000     0.065600000000     0.869010000000    -0.556159   
O36      O      0.040940000000     0.475710000000     0.881100000000    -0.5603     
O37      O      0.487070000000     0.475980000000     0.877460000000    -0.55541    
O38      O      0.488010000000     0.066580000000     0.869680000000    -0.556364   
O39      O      0.488520000000     0.518080000000     0.828410000000    -0.559433   
O40      O      0.486180000000     0.025260000000     0.918960000000    -0.559584   
O41      O      0.041700000000     0.277260000000     0.913840000000    -0.559348   
O42      O      0.045650000000     0.266490000000     0.823630000000    -0.557212   
O43      O      0.043850000000     0.317400000000     0.863790000000    -0.554858   
O44      O      0.043160000000     0.227010000000     0.873860000000    -0.556723   
O45      O      0.489330000000     0.227300000000     0.869690000000    -0.558227   
O46      O      0.489850000000     0.317760000000     0.863170000000    -0.561159   
O47      O      0.491730000000     0.270140000000     0.821010000000    -0.558203   
O48      O      0.487760000000     0.275940000000     0.911700000000    -0.559988   
O49      O      0.291460000000     0.480790000000     0.904040000000    -0.555124   
O50      O      0.290840000000     0.071690000000     0.904740000000    -0.556918   
O51      O      0.291270000000     0.525860000000     0.950050000000    -0.556838   
O52      O      0.291430000000     0.027620000000     0.859100000000    -0.557864   
O53      O      0.237490000000     0.523200000000     0.858860000000    -0.555129   
O54      O      0.237290000000     0.027220000000     0.949990000000    -0.555332   
O55      O      0.236890000000     0.070930000000     0.902420000000    -0.557604   
O56      O      0.237510000000     0.480430000000     0.906280000000    -0.561953   
O57      O      0.234970000000     0.322150000000     0.888700000000    -0.555947   
O58      O      0.235450000000     0.232430000000     0.903170000000    -0.558295   
O59      O      0.235760000000     0.284270000000     0.940680000000    -0.559689   
O60      O      0.234310000000     0.269500000000     0.850990000000    -0.558576   
O61      O      0.288280000000     0.273150000000     0.849680000000    -0.559749   
O62      O      0.289750000000     0.282940000000     0.940060000000    -0.560137   
O63      O      0.289390000000     0.232640000000     0.900460000000    -0.559721   
O64      O      0.288980000000     0.322610000000     0.889550000000    -0.562138   
O65      O      0.505310000000     0.034890000000     0.327620000000    -0.555637   
O66      O      0.006840000000     0.036650000000     0.418630000000    -0.556536   
O67      O      0.051630000000     0.034500000000     0.372180000000    -0.558677   
O68      O      0.459780000000     0.037270000000     0.374290000000    -0.554782   
O69      O      0.458280000000     0.484090000000     0.377720000000    -0.557622   
O70      O      0.050110000000     0.481220000000     0.371030000000    -0.552743   
O71      O      0.507310000000     0.483350000000     0.419590000000    -0.557649   
O72      O      0.999860000000     0.481750000000     0.328880000000    -0.55497    
O73      O      0.469640000000     0.271840000000     0.369490000000    -0.561247   
O74      O      0.061000000000     0.274530000000     0.360370000000    -0.558096   
O75      O      0.510170000000     0.272940000000     0.319750000000    -0.558735   
O76      O      0.020060000000     0.273360000000     0.410170000000    -0.5596     
O77      O      0.519410000000     0.220040000000     0.410480000000    -0.560122   
O78      O      0.015680000000     0.219770000000     0.319700000000    -0.560204   
O79      O      0.062690000000     0.221280000000     0.362920000000    -0.562475   
O80      O      0.470950000000     0.218590000000     0.367180000000    -0.557161   
O81      O      0.252650000000     0.485180000000     0.451150000000    -0.556676   
O82      O      0.262740000000     0.484680000000     0.360600000000    -0.555786   
O83      O      0.302790000000     0.486740000000     0.410380000000    -0.55996    
O84      O      0.211380000000     0.482880000000     0.401140000000    -0.554475   
O85      O      0.208990000000     0.036100000000     0.402960000000    -0.5562     
O86      O      0.300880000000     0.039930000000     0.407290000000    -0.55357    
O87      O      0.256590000000     0.037760000000     0.359870000000    -0.557867   
O88      O      0.252620000000     0.038490000000     0.450700000000    -0.556652   
O89      O      0.262480000000     0.273050000000     0.438230000000    -0.559183   
O90      O      0.268710000000     0.273470000000     0.347480000000    -0.557772   
O91      O      0.219570000000     0.275000000000     0.390090000000    -0.558023   
O92      O      0.311230000000     0.271410000000     0.395710000000    -0.560439   
O93      O      0.309290000000     0.218200000000     0.392870000000    -0.556495   
O94      O      0.217530000000     0.221770000000     0.392280000000    -0.562453   
O95      O      0.262670000000     0.220380000000     0.346990000000    -0.555403   
O96      O      0.262720000000     0.219730000000     0.438110000000    -0.556471   
O97      O      0.530680000000     0.039790000000     0.577340000000    -0.558781   
O98      O      0.026410000000     0.042740000000     0.668020000000    -0.558673   
O99      O      0.074860000000     0.042930000000     0.624500000000    -0.554396   
O100     O      0.482960000000     0.039340000000     0.621070000000    -0.557883   
O101     O      0.485000000000     0.486240000000     0.625380000000    -0.557109   
O102     O      0.076750000000     0.489650000000     0.623660000000    -0.561377   
O103     O      0.532470000000     0.489680000000     0.670030000000    -0.555698   
O104     O      0.030330000000     0.486500000000     0.578980000000    -0.556858   
O105     O      0.015650000000     0.221470000000     0.572250000000    -0.557544   
O106     O      0.519090000000     0.223120000000     0.663270000000    -0.556406   
O107     O      0.471310000000     0.220450000000     0.619130000000    -0.557831   
O108     O      0.063030000000     0.224030000000     0.616300000000    -0.560988   
O109     O      0.061020000000     0.277290000000     0.617930000000    -0.557681   
O110     O      0.469250000000     0.273620000000     0.615570000000    -0.562959   
O111     O      0.012890000000     0.276190000000     0.662130000000    -0.560616   
O112     O      0.515940000000     0.274780000000     0.571380000000    -0.561149   
O113     O      0.277400000000     0.487260000000     0.699720000000    -0.557845   
O114     O      0.278990000000     0.487070000000     0.608780000000    -0.558731   
O115     O      0.324720000000     0.486070000000     0.654660000000    -0.555221   
O116     O      0.232740000000     0.488520000000     0.653730000000    -0.559807   
O117     O      0.234210000000     0.041770000000     0.656000000000    -0.556069   
O118     O      0.325940000000     0.039310000000     0.652180000000    -0.558883   
O119     O      0.278190000000     0.040380000000     0.608610000000    -0.554827   
O120     O      0.282670000000     0.040420000000     0.699660000000    -0.553643   
O121     O      0.220580000000     0.223870000000     0.644050000000    -0.560149   
O122     O      0.312310000000     0.221310000000     0.648400000000    -0.557647   
O123     O      0.263780000000     0.223730000000     0.691690000000    -0.556179   
O124     O      0.268700000000     0.221470000000     0.600720000000    -0.556413   
O125     O      0.267960000000     0.274770000000     0.599480000000    -0.560308   
O126     O      0.269300000000     0.276870000000     0.690290000000    -0.560374   
O127     O      0.313810000000     0.274490000000     0.644660000000    -0.56352    
O128     O      0.222010000000     0.277160000000     0.645240000000    -0.557924   
O129     O      0.037460000000     0.953010000000     0.121020000000    -0.554587   
O130     O      0.034730000000     0.543910000000     0.123950000000    -0.55813    
O131     O      0.036270000000     0.997880000000     0.167950000000    -0.560378   
O132     O      0.036420000000     0.500070000000     0.077220000000    -0.560469   
O133     O      0.482430000000     0.000870000000     0.076980000000    -0.557746   
O134     O      0.482450000000     0.492450000000     0.167930000000    -0.552906   
O135     O      0.480820000000     0.542110000000     0.126370000000    -0.557273   
O136     O      0.483540000000     0.951890000000     0.118330000000    -0.561538   
O137     O      0.480670000000     0.792540000000     0.118590000000    -0.558727   
O138     O      0.477780000000     0.702060000000     0.109840000000    -0.555409   
O139     O      0.476470000000     0.743750000000     0.159220000000    -0.562515   
O140     O      0.481530000000     0.751580000000     0.069000000000    -0.561637   
O141     O      0.035450000000     0.752170000000     0.071820000000    -0.557054   
O142     O      0.030190000000     0.737790000000     0.161620000000    -0.556918   
O143     O      0.031760000000     0.700700000000     0.109750000000    -0.561486   
O144     O      0.034350000000     0.790220000000     0.123880000000    -0.557157   
O145     O      0.234620000000     0.955330000000     0.155260000000    -0.551808   
O146     O      0.237220000000     0.546080000000     0.151430000000    -0.560109   
O147     O      0.236860000000     0.999080000000     0.107760000000    -0.557084   
O148     O      0.234430000000     0.503230000000     0.198420000000    -0.560679   
O149     O      0.288250000000     0.997910000000     0.200200000000    -0.551922   
O150     O      0.290840000000     0.500010000000     0.108950000000    -0.554499   
O151     O      0.291050000000     0.544550000000     0.155470000000    -0.560018   
O152     O      0.288600000000     0.954140000000     0.154160000000    -0.565388   
O153     O      0.291370000000     0.751780000000     0.093730000000    -0.562812   
O154     O      0.294290000000     0.748630000000     0.184370000000    -0.560677   
O155     O      0.294250000000     0.704460000000     0.137050000000    -0.557274   
O156     O      0.290930000000     0.795130000000     0.140680000000    -0.560985   
O157     O      0.237110000000     0.792980000000     0.144570000000    -0.559227   
O158     O      0.240270000000     0.702940000000     0.135970000000    -0.563576   
O159     O      0.240530000000     0.742850000000     0.185920000000    -0.553879   
O160     O      0.237390000000     0.752220000000     0.095230000000    -0.557199   
O161     O      0.040150000000     0.026480000000     0.920230000000    -0.557399   
O162     O      0.042430000000     0.513790000000     0.830030000000    -0.555339   
O163     O      0.042000000000     0.565600000000     0.869010000000    -0.556974   
O164     O      0.040940000000     0.975710000000     0.881100000000    -0.556737   
O165     O      0.487070000000     0.975980000000     0.877460000000    -0.551827   
O166     O      0.488010000000     0.566580000000     0.869680000000    -0.557191   
O167     O      0.488520000000     0.018080000000     0.828410000000    -0.55955    
O168     O      0.486180000000     0.525260000000     0.918960000000    -0.559478   
O169     O      0.041700000000     0.777260000000     0.913840000000    -0.559332   
O170     O      0.045650000000     0.766490000000     0.823630000000    -0.557212   
O171     O      0.043850000000     0.817400000000     0.863790000000    -0.554824   
O172     O      0.043160000000     0.727010000000     0.873860000000    -0.556647   
O173     O      0.489330000000     0.727300000000     0.869690000000    -0.558153   
O174     O      0.489850000000     0.817760000000     0.863170000000    -0.561117   
O175     O      0.491730000000     0.770140000000     0.821010000000    -0.558203   
O176     O      0.487760000000     0.775940000000     0.911700000000    -0.559973   
O177     O      0.291460000000     0.980790000000     0.904040000000    -0.551504   
O178     O      0.290840000000     0.571690000000     0.904740000000    -0.557756   
O179     O      0.291270000000     0.025860000000     0.950050000000    -0.556906   
O180     O      0.291430000000     0.527620000000     0.859100000000    -0.557915   
O181     O      0.237490000000     0.023200000000     0.858860000000    -0.555378   
O182     O      0.237290000000     0.527220000000     0.949990000000    -0.55539    
O183     O      0.236890000000     0.570930000000     0.902420000000    -0.558465   
O184     O      0.237510000000     0.980430000000     0.906280000000    -0.558328   
O185     O      0.234970000000     0.822150000000     0.888700000000    -0.556001   
O186     O      0.235450000000     0.732430000000     0.903170000000    -0.558301   
O187     O      0.235760000000     0.784270000000     0.940680000000    -0.559663   
O188     O      0.234310000000     0.769500000000     0.850990000000    -0.558576   
O189     O      0.288280000000     0.773150000000     0.849680000000    -0.559764   
O190     O      0.289750000000     0.782940000000     0.940060000000    -0.560116   
O191     O      0.289390000000     0.732640000000     0.900460000000    -0.55973    
O192     O      0.288980000000     0.822610000000     0.889550000000    -0.562184   
O193     O      0.505310000000     0.534890000000     0.327620000000    -0.557072   
O194     O      0.006840000000     0.536650000000     0.418630000000    -0.558055   
O195     O      0.051630000000     0.534500000000     0.372180000000    -0.560207   
O196     O      0.459780000000     0.537270000000     0.374290000000    -0.556282   
O197     O      0.458280000000     0.984090000000     0.377720000000    -0.55399    
O198     O      0.050110000000     0.981220000000     0.371030000000    -0.549097   
O199     O      0.507310000000     0.983350000000     0.419590000000    -0.55402    
O200     O      0.999860000000     0.981750000000     0.328880000000    -0.551424   
O201     O      0.469640000000     0.771840000000     0.369490000000    -0.561253   
O202     O      0.061000000000     0.774530000000     0.360370000000    -0.55809    
O203     O      0.510170000000     0.772930000000     0.319750000000    -0.558924   
O204     O      0.020060000000     0.773360000000     0.410170000000    -0.559607   
O205     O      0.519410000000     0.720040000000     0.410480000000    -0.560147   
O206     O      0.015680000000     0.719770000000     0.319700000000    -0.560291   
O207     O      0.062690000000     0.721280000000     0.362920000000    -0.562482   
O208     O      0.470950000000     0.718590000000     0.367180000000    -0.557183   
O209     O      0.252650000000     0.985180000000     0.451150000000    -0.55301    
O210     O      0.262740000000     0.984680000000     0.360600000000    -0.552135   
O211     O      0.302790000000     0.986730000000     0.410380000000    -0.556124   
O212     O      0.211380000000     0.982870000000     0.401140000000    -0.550577   
O213     O      0.208990000000     0.536100000000     0.402960000000    -0.557806   
O214     O      0.300880000000     0.539930000000     0.407290000000    -0.555166   
O215     O      0.256590000000     0.537760000000     0.359870000000    -0.559395   
O216     O      0.252620000000     0.538490000000     0.450700000000    -0.558172   
O217     O      0.262480000000     0.773050000000     0.438230000000    -0.559187   
O218     O      0.268710000000     0.773470000000     0.347480000000    -0.557762   
O219     O      0.219570000000     0.775000000000     0.390090000000    -0.55802    
O220     O      0.311230000000     0.771410000000     0.395710000000    -0.560442   
O221     O      0.309290000000     0.718200000000     0.392870000000    -0.556499   
O222     O      0.217530000000     0.721770000000     0.392280000000    -0.562461   
O223     O      0.262670000000     0.720380000000     0.346990000000    -0.555404   
O224     O      0.262720000000     0.719730000000     0.438110000000    -0.55648    
O225     O      0.530680000000     0.539790000000     0.577340000000    -0.560304   
O226     O      0.026410000000     0.542740000000     0.668020000000    -0.560216   
O227     O      0.074860000000     0.542930000000     0.624500000000    -0.555914   
O228     O      0.482960000000     0.539340000000     0.621070000000    -0.55942    
O229     O      0.485000000000     0.986240000000     0.625380000000    -0.553412   
O230     O      0.076750000000     0.989650000000     0.623660000000    -0.557715   
O231     O      0.532470000000     0.989680000000     0.670030000000    -0.552027   
O232     O      0.030330000000     0.986500000000     0.578980000000    -0.553203   
O233     O      0.015650000000     0.721470000000     0.572250000000    -0.55755    
O234     O      0.519090000000     0.723120000000     0.663270000000    -0.556416   
O235     O      0.471310000000     0.720450000000     0.619130000000    -0.557839   
O236     O      0.063030000000     0.724030000000     0.616300000000    -0.560996   
O237     O      0.061020000000     0.777290000000     0.617930000000    -0.557681   
O238     O      0.469250000000     0.773620000000     0.615570000000    -0.562956   
O239     O      0.012890000000     0.776190000000     0.662130000000    -0.560607   
O240     O      0.515940000000     0.774780000000     0.571380000000    -0.56115    
O241     O      0.277400000000     0.987260000000     0.699720000000    -0.554147   
O242     O      0.278990000000     0.987070000000     0.608780000000    -0.55504    
O243     O      0.324720000000     0.986060000000     0.654660000000    -0.551267   
O244     O      0.232740000000     0.988520000000     0.653730000000    -0.55611    
O245     O      0.234210000000     0.541770000000     0.656000000000    -0.55765    
O246     O      0.325940000000     0.539310000000     0.652180000000    -0.56056    
O247     O      0.278190000000     0.540380000000     0.608610000000    -0.556395   
O248     O      0.282670000000     0.540420000000     0.699660000000    -0.5552     
O249     O      0.220580000000     0.723870000000     0.644050000000    -0.56011    
O250     O      0.312310000000     0.721310000000     0.648400000000    -0.557653   
O251     O      0.263780000000     0.723730000000     0.691690000000    -0.556071   
O252     O      0.268700000000     0.721470000000     0.600720000000    -0.556412   
O253     O      0.267960000000     0.774770000000     0.599480000000    -0.560335   
O254     O      0.269300000000     0.776870000000     0.690290000000    -0.560493   
O255     O      0.313810000000     0.774490000000     0.644660000000    -0.563543   
O256     O      0.222010000000     0.777150000000     0.645240000000    -0.558244   
O257     O      0.537460000000     0.453010000000     0.121020000000    -0.553921   
O258     O      0.534730000000     0.043910000000     0.123950000000    -0.562026   
O259     O      0.536270000000     0.497880000000     0.167950000000    -0.560442   
O260     O      0.536410000000     0.000070000000     0.077220000000    -0.564654   
O261     O      0.982430000000     0.500870000000     0.076980000000    -0.553652   
O262     O      0.982450000000     0.992460000000     0.167930000000    -0.553173   
O263     O      0.980810000000     0.042110000000     0.126370000000    -0.560513   
O264     O      0.983540000000     0.451890000000     0.118330000000    -0.560361   
O265     O      0.980670000000     0.292540000000     0.118590000000    -0.558534   
O266     O      0.977780000000     0.202060000000     0.109840000000    -0.555092   
O267     O      0.976470000000     0.243750000000     0.159220000000    -0.56233    
O268     O      0.981530000000     0.251580000000     0.069000000000    -0.561437   
O269     O      0.535450000000     0.252170000000     0.071820000000    -0.557142   
O270     O      0.530190000000     0.237790000000     0.161620000000    -0.557      
O271     O      0.531760000000     0.200700000000     0.109750000000    -0.561448   
O272     O      0.534350000000     0.290220000000     0.123880000000    -0.557251   
O273     O      0.734620000000     0.455330000000     0.155260000000    -0.555897   
O274     O      0.737220000000     0.046080000000     0.151430000000    -0.558621   
O275     O      0.736870000000     0.499080000000     0.107760000000    -0.560329   
O276     O      0.734430000000     0.003230000000     0.198420000000    -0.558427   
O277     O      0.788250000000     0.497910000000     0.200200000000    -0.554198   
O278     O      0.790840000000     0.000010000000     0.108950000000    -0.563061   
O279     O      0.791050000000     0.044550000000     0.155470000000    -0.564142   
O280     O      0.788600000000     0.454140000000     0.154160000000    -0.56376    
O281     O      0.791370000000     0.251780000000     0.093730000000    -0.562817   
O282     O      0.794290000000     0.248630000000     0.184370000000    -0.560677   
O283     O      0.794250000000     0.204460000000     0.137050000000    -0.557378   
O284     O      0.790930000000     0.295130000000     0.140680000000    -0.560925   
O285     O      0.737100000000     0.292980000000     0.144570000000    -0.559033   
O286     O      0.740270000000     0.202940000000     0.135970000000    -0.563442   
O287     O      0.740530000000     0.242850000000     0.185920000000    -0.553866   
O288     O      0.737390000000     0.252220000000     0.095230000000    -0.557188   
O289     O      0.540150000000     0.526480000000     0.920230000000    -0.557445   
O290     O      0.542430000000     0.013790000000     0.830030000000    -0.55606    
O291     O      0.542000000000     0.065600000000     0.869010000000    -0.556243   
O292     O      0.540940000000     0.475710000000     0.881100000000    -0.560387   
O293     O      0.987070000000     0.475980000000     0.877460000000    -0.555205   
O294     O      0.988010000000     0.066580000000     0.869680000000    -0.556161   
O295     O      0.988520000000     0.518080000000     0.828410000000    -0.559233   
O296     O      0.986180000000     0.025260000000     0.918960000000    -0.559383   
O297     O      0.541700000000     0.277260000000     0.913840000000    -0.559512   
O298     O      0.545650000000     0.266490000000     0.823630000000    -0.557316   
O299     O      0.543850000000     0.317400000000     0.863790000000    -0.554949   
O300     O      0.543160000000     0.227010000000     0.873860000000    -0.556813   
O301     O      0.989330000000     0.227300000000     0.869690000000    -0.558009   
O302     O      0.989850000000     0.317760000000     0.863170000000    -0.560944   
O303     O      0.991730000000     0.270140000000     0.821010000000    -0.557966   
O304     O      0.987750000000     0.275940000000     0.911700000000    -0.559582   
O305     O      0.791460000000     0.480790000000     0.904040000000    -0.555124   
O306     O      0.790840000000     0.071690000000     0.904740000000    -0.55692    
O307     O      0.791270000000     0.525860000000     0.950050000000    -0.556838   
O308     O      0.791430000000     0.027620000000     0.859100000000    -0.557863   
O309     O      0.737490000000     0.523200000000     0.858860000000    -0.55513    
O310     O      0.737290000000     0.027220000000     0.949990000000    -0.555333   
O311     O      0.736890000000     0.070930000000     0.902420000000    -0.557606   
O312     O      0.737510000000     0.480430000000     0.906280000000    -0.561954   
O313     O      0.734970000000     0.322150000000     0.888700000000    -0.555949   
O314     O      0.735450000000     0.232430000000     0.903170000000    -0.558296   
O315     O      0.735760000000     0.284270000000     0.940680000000    -0.55969    
O316     O      0.734310000000     0.269500000000     0.850990000000    -0.558577   
O317     O      0.788280000000     0.273150000000     0.849680000000    -0.559749   
O318     O      0.789750000000     0.282940000000     0.940060000000    -0.560137   
O319     O      0.789390000000     0.232640000000     0.900460000000    -0.559721   
O320     O      0.788980000000     0.322610000000     0.889550000000    -0.562138   
O321     O      0.005310000000     0.034890000000     0.327620000000    -0.555535   
O322     O      0.506840000000     0.036650000000     0.418630000000    -0.55654    
O323     O      0.551630000000     0.034500000000     0.372180000000    -0.558724   
O324     O      0.959780000000     0.037270000000     0.374290000000    -0.554618   
O325     O      0.958280000000     0.484090000000     0.377720000000    -0.557435   
O326     O      0.550110000000     0.481220000000     0.371030000000    -0.552815   
O327     O      0.007310000000     0.483350000000     0.419590000000    -0.557596   
O328     O      0.499860000000     0.481750000000     0.328880000000    -0.555439   
O329     O      0.969640000000     0.271840000000     0.369490000000    -0.561087   
O330     O      0.561000000000     0.274530000000     0.360370000000    -0.558262   
O331     O      0.010170000000     0.272940000000     0.319750000000    -0.558777   
O332     O      0.520060000000     0.273360000000     0.410170000000    -0.559592   
O333     O      0.019410000000     0.220040000000     0.410480000000    -0.560091   
O334     O      0.515680000000     0.219770000000     0.319700000000    -0.560235   
O335     O      0.562690000000     0.221280000000     0.362920000000    -0.562694   
O336     O      0.970940000000     0.218590000000     0.367180000000    -0.556843   
O337     O      0.752650000000     0.485180000000     0.451150000000    -0.556677   
O338     O      0.762740000000     0.484680000000     0.360600000000    -0.555801   
O339     O      0.802790000000     0.486740000000     0.410380000000    -0.559956   
O340     O      0.711380000000     0.482880000000     0.401140000000    -0.554481   
O341     O      0.708990000000     0.036100000000     0.402960000000    -0.556217   
O342     O      0.800880000000     0.039930000000     0.407290000000    -0.553551   
O343     O      0.756600000000     0.037760000000     0.359870000000    -0.557891   
O344     O      0.752620000000     0.038490000000     0.450700000000    -0.556653   
O345     O      0.762480000000     0.273050000000     0.438230000000    -0.559185   
O346     O      0.768710000000     0.273470000000     0.347480000000    -0.557773   
O347     O      0.719570000000     0.275000000000     0.390090000000    -0.558026   
O348     O      0.811230000000     0.271410000000     0.395710000000    -0.560472   
O349     O      0.809290000000     0.218200000000     0.392870000000    -0.556525   
O350     O      0.717530000000     0.221770000000     0.392280000000    -0.562456   
O351     O      0.762670000000     0.220380000000     0.346990000000    -0.555404   
O352     O      0.762720000000     0.219730000000     0.438110000000    -0.556473   
O353     O      0.030680000000     0.039790000000     0.577340000000    -0.558783   
O354     O      0.526410000000     0.042740000000     0.668020000000    -0.558659   
O355     O      0.574860000000     0.042930000000     0.624500000000    -0.554444   
O356     O      0.982960000000     0.039340000000     0.621070000000    -0.557688   
O357     O      0.985000000000     0.486240000000     0.625380000000    -0.556907   
O358     O      0.576750000000     0.489650000000     0.623660000000    -0.561426   
O359     O      0.032470000000     0.489680000000     0.670030000000    -0.555695   
O360     O      0.530330000000     0.486500000000     0.578980000000    -0.556853   
O361     O      0.515650000000     0.221470000000     0.572250000000    -0.557542   
O362     O      0.019090000000     0.223120000000     0.663270000000    -0.556415   
O363     O      0.971310000000     0.220450000000     0.619130000000    -0.557635   
O364     O      0.563030000000     0.224030000000     0.616300000000    -0.561038   
O365     O      0.561020000000     0.277290000000     0.617930000000    -0.557728   
O366     O      0.969250000000     0.273620000000     0.615570000000    -0.562764   
O367     O      0.512890000000     0.276190000000     0.662130000000    -0.560578   
O368     O      0.015940000000     0.274780000000     0.571380000000    -0.561148   
O369     O      0.777400000000     0.487260000000     0.699720000000    -0.557838   
O370     O      0.778980000000     0.487070000000     0.608780000000    -0.558732   
O371     O      0.824720000000     0.486070000000     0.654660000000    -0.55539    
O372     O      0.732740000000     0.488520000000     0.653730000000    -0.559629   
O373     O      0.734210000000     0.041770000000     0.656000000000    -0.556048   
O374     O      0.825940000000     0.039310000000     0.652180000000    -0.558903   
O375     O      0.778190000000     0.040380000000     0.608610000000    -0.554828   
O376     O      0.782670000000     0.040420000000     0.699660000000    -0.553643   
O377     O      0.720580000000     0.223870000000     0.644050000000    -0.56013    
O378     O      0.812310000000     0.221310000000     0.648400000000    -0.557625   
O379     O      0.763770000000     0.223730000000     0.691690000000    -0.556143   
O380     O      0.768700000000     0.221470000000     0.600720000000    -0.556406   
O381     O      0.767960000000     0.274770000000     0.599480000000    -0.560307   
O382     O      0.769300000000     0.276870000000     0.690290000000    -0.560362   
O383     O      0.813810000000     0.274490000000     0.644660000000    -0.56349    
O384     O      0.722010000000     0.277160000000     0.645240000000    -0.557919   
O385     O      0.537460000000     0.953010000000     0.121020000000    -0.554688   
O386     O      0.534730000000     0.543910000000     0.123950000000    -0.558303   
O387     O      0.536270000000     0.997880000000     0.167950000000    -0.560477   
O388     O      0.536410000000     0.500070000000     0.077220000000    -0.560758   
O389     O      0.982430000000     0.000870000000     0.076980000000    -0.557456   
O390     O      0.982450000000     0.492450000000     0.167930000000    -0.552685   
O391     O      0.980810000000     0.542110000000     0.126370000000    -0.556862   
O392     O      0.983540000000     0.951890000000     0.118330000000    -0.561318   
O393     O      0.980670000000     0.792540000000     0.118590000000    -0.558518   
O394     O      0.977780000000     0.702060000000     0.109840000000    -0.555095   
O395     O      0.976470000000     0.743750000000     0.159220000000    -0.562304   
O396     O      0.981530000000     0.751580000000     0.069000000000    -0.561429   
O397     O      0.535450000000     0.752170000000     0.071820000000    -0.557134   
O398     O      0.530190000000     0.737790000000     0.161620000000    -0.557      
O399     O      0.531760000000     0.700700000000     0.109750000000    -0.561455   
O400     O      0.534350000000     0.790220000000     0.123880000000    -0.557234   
O401     O      0.734620000000     0.955330000000     0.155260000000    -0.551767   
O402     O      0.737220000000     0.546080000000     0.151430000000    -0.560077   
O403     O      0.736870000000     0.999080000000     0.107760000000    -0.557239   
O404     O      0.734430000000     0.503230000000     0.198420000000    -0.560639   
O405     O      0.788250000000     0.997910000000     0.200200000000    -0.551891   
O406     O      0.790840000000     0.500010000000     0.108950000000    -0.554541   
O407     O      0.791050000000     0.544550000000     0.155470000000    -0.559985   
O408     O      0.788600000000     0.954140000000     0.154160000000    -0.565354   
O409     O      0.791370000000     0.751780000000     0.093730000000    -0.562814   
O410     O      0.794290000000     0.748630000000     0.184370000000    -0.560677   
O411     O      0.794250000000     0.704460000000     0.137050000000    -0.557375   
O412     O      0.790930000000     0.795130000000     0.140680000000    -0.560915   
O413     O      0.737100000000     0.792980000000     0.144570000000    -0.559016   
O414     O      0.740270000000     0.702940000000     0.135970000000    -0.563443   
O415     O      0.740530000000     0.742850000000     0.185920000000    -0.553864   
O416     O      0.737390000000     0.752220000000     0.095230000000    -0.557183   
O417     O      0.540150000000     0.026480000000     0.920230000000    -0.557483   
O418     O      0.542430000000     0.513790000000     0.830030000000    -0.555424   
O419     O      0.542000000000     0.565600000000     0.869010000000    -0.557059   
O420     O      0.540940000000     0.975710000000     0.881100000000    -0.556823   
O421     O      0.987070000000     0.975980000000     0.877460000000    -0.551623   
O422     O      0.988010000000     0.566580000000     0.869680000000    -0.556988   
O423     O      0.988520000000     0.018080000000     0.828410000000    -0.55935    
O424     O      0.986180000000     0.525260000000     0.918960000000    -0.559276   
O425     O      0.541700000000     0.777260000000     0.913840000000    -0.559495   
O426     O      0.545650000000     0.766490000000     0.823630000000    -0.557315   
O427     O      0.543850000000     0.817400000000     0.863790000000    -0.554914   
O428     O      0.543160000000     0.727010000000     0.873860000000    -0.556736   
O429     O      0.989330000000     0.727300000000     0.869690000000    -0.557935   
O430     O      0.989850000000     0.817760000000     0.863170000000    -0.560903   
O431     O      0.991730000000     0.770140000000     0.821010000000    -0.557966   
O432     O      0.987750000000     0.775940000000     0.911700000000    -0.559567   
O433     O      0.791460000000     0.980790000000     0.904040000000    -0.551504   
O434     O      0.790840000000     0.571690000000     0.904740000000    -0.557757   
O435     O      0.791270000000     0.025860000000     0.950050000000    -0.556906   
O436     O      0.791430000000     0.527620000000     0.859100000000    -0.557915   
O437     O      0.737490000000     0.023200000000     0.858860000000    -0.555379   
O438     O      0.737290000000     0.527220000000     0.949990000000    -0.555391   
O439     O      0.736890000000     0.570930000000     0.902420000000    -0.558467   
O440     O      0.737510000000     0.980430000000     0.906280000000    -0.558329   
O441     O      0.734970000000     0.822150000000     0.888700000000    -0.556002   
O442     O      0.735450000000     0.732430000000     0.903170000000    -0.558302   
O443     O      0.735760000000     0.784270000000     0.940680000000    -0.559664   
O444     O      0.734310000000     0.769500000000     0.850990000000    -0.558578   
O445     O      0.788280000000     0.773150000000     0.849680000000    -0.559765   
O446     O      0.789750000000     0.782940000000     0.940060000000    -0.560116   
O447     O      0.789390000000     0.732640000000     0.900460000000    -0.559729   
O448     O      0.788980000000     0.822610000000     0.889550000000    -0.562184   
O449     O      0.005310000000     0.534890000000     0.327620000000    -0.556969   
O450     O      0.506840000000     0.536650000000     0.418630000000    -0.558059   
O451     O      0.551630000000     0.534500000000     0.372180000000    -0.560254   
O452     O      0.959780000000     0.537270000000     0.374290000000    -0.556117   
O453     O      0.958280000000     0.984090000000     0.377720000000    -0.553805   
O454     O      0.550110000000     0.981220000000     0.371030000000    -0.549168   
O455     O      0.007310000000     0.983350000000     0.419590000000    -0.553968   
O456     O      0.499860000000     0.981750000000     0.328880000000    -0.551891   
O457     O      0.969640000000     0.771840000000     0.369490000000    -0.561093   
O458     O      0.561000000000     0.774530000000     0.360370000000    -0.558256   
O459     O      0.010170000000     0.772930000000     0.319750000000    -0.558966   
O460     O      0.520060000000     0.773360000000     0.410170000000    -0.559599   
O461     O      0.019410000000     0.720040000000     0.410480000000    -0.560116   
O462     O      0.515680000000     0.719770000000     0.319700000000    -0.560322   
O463     O      0.562690000000     0.721280000000     0.362920000000    -0.562701   
O464     O      0.970940000000     0.718590000000     0.367180000000    -0.556865   
O465     O      0.752650000000     0.985180000000     0.451150000000    -0.553012   
O466     O      0.762740000000     0.984680000000     0.360600000000    -0.55215    
O467     O      0.802790000000     0.986730000000     0.410380000000    -0.55612    
O468     O      0.711380000000     0.982870000000     0.401140000000    -0.550583   
O469     O      0.708990000000     0.536100000000     0.402960000000    -0.557823   
O470     O      0.800880000000     0.539930000000     0.407290000000    -0.555147   
O471     O      0.756600000000     0.537760000000     0.359870000000    -0.55942    
O472     O      0.752620000000     0.538490000000     0.450700000000    -0.558173   
O473     O      0.762480000000     0.773050000000     0.438230000000    -0.559189   
O474     O      0.768710000000     0.773470000000     0.347480000000    -0.557763   
O475     O      0.719570000000     0.775000000000     0.390090000000    -0.558023   
O476     O      0.811230000000     0.771410000000     0.395710000000    -0.560475   
O477     O      0.809290000000     0.718200000000     0.392870000000    -0.556529   
O478     O      0.717530000000     0.721770000000     0.392280000000    -0.562465   
O479     O      0.762670000000     0.720380000000     0.346990000000    -0.555405   
O480     O      0.762720000000     0.719730000000     0.438110000000    -0.556482   
O481     O      0.030680000000     0.539790000000     0.577340000000    -0.560306   
O482     O      0.526410000000     0.542740000000     0.668020000000    -0.560201   
O483     O      0.574860000000     0.542930000000     0.624500000000    -0.555962   
O484     O      0.982960000000     0.539340000000     0.621070000000    -0.559225   
O485     O      0.985000000000     0.986240000000     0.625380000000    -0.553212   
O486     O      0.576750000000     0.989650000000     0.623660000000    -0.557763   
O487     O      0.032470000000     0.989680000000     0.670030000000    -0.552025   
O488     O      0.530330000000     0.986500000000     0.578980000000    -0.553198   
O489     O      0.515650000000     0.721470000000     0.572250000000    -0.557548   
O490     O      0.019090000000     0.723120000000     0.663270000000    -0.556426   
O491     O      0.971310000000     0.720450000000     0.619130000000    -0.557642   
O492     O      0.563030000000     0.724030000000     0.616300000000    -0.561046   
O493     O      0.561020000000     0.777290000000     0.617930000000    -0.557728   
O494     O      0.969250000000     0.773620000000     0.615570000000    -0.562761   
O495     O      0.512890000000     0.776190000000     0.662130000000    -0.56057    
O496     O      0.015940000000     0.774780000000     0.571380000000    -0.561149   
O497     O      0.777400000000     0.987260000000     0.699720000000    -0.55414    
O498     O      0.778980000000     0.987070000000     0.608780000000    -0.555042   
O499     O      0.824720000000     0.986060000000     0.654660000000    -0.551436   
O500     O      0.732740000000     0.988520000000     0.653730000000    -0.555932   
O501     O      0.734210000000     0.541770000000     0.656000000000    -0.557628   
O502     O      0.825940000000     0.539310000000     0.652180000000    -0.56058    
O503     O      0.778190000000     0.540380000000     0.608610000000    -0.556396   
O504     O      0.782670000000     0.540420000000     0.699660000000    -0.5552     
O505     O      0.720580000000     0.723870000000     0.644050000000    -0.560091   
O506     O      0.812310000000     0.721310000000     0.648400000000    -0.557632   
O507     O      0.763770000000     0.723730000000     0.691690000000    -0.556035   
O508     O      0.768700000000     0.721470000000     0.600720000000    -0.556406   
O509     O      0.767960000000     0.774770000000     0.599480000000    -0.560333   
O510     O      0.769300000000     0.776870000000     0.690290000000    -0.560481   
O511     O      0.813810000000     0.774490000000     0.644660000000    -0.563513   
O512     O      0.722010000000     0.777150000000     0.645240000000    -0.558239   
V1       V      0.038380000000     0.498670000000     0.122570000000     1.38975    
V2       V      0.480130000000     0.996800000000     0.122440000000     1.38994    
V3       V      0.476940000000     0.247520000000     0.114010000000     1.3916     
V4       V      0.035120000000     0.245240000000     0.116880000000     1.38772    
V5       V      0.233610000000     0.500910000000     0.153090000000     1.3921     
V6       V      0.291870000000     0.999160000000     0.154680000000     1.40489    
V7       V      0.294880000000     0.250010000000     0.138960000000     1.39512    
V8       V      0.236640000000     0.247720000000     0.140600000000     1.38841    
V9       V      0.043550000000     0.020490000000     0.875150000000     1.38195    
V10      V      0.485270000000     0.021430000000     0.873620000000     1.38351    
V11      V      0.045770000000     0.272070000000     0.868830000000     1.38318    
V12      V      0.487510000000     0.272670000000     0.866290000000     1.39368    
V13      V      0.293430000000     0.526410000000     0.904540000000     1.38491    
V14      V      0.235130000000     0.025510000000     0.904420000000     1.38319    
V15      V      0.232940000000     0.277140000000     0.895860000000     1.38569    
V16      V      0.291260000000     0.277750000000     0.894870000000     1.39651    
V17      V      0.005910000000     0.037960000000     0.373100000000     1.38206    
V18      V      0.003940000000     0.480450000000     0.374290000000     1.3811     
V19      V      0.515140000000     0.275320000000     0.364950000000     1.39191    
V20      V      0.017080000000     0.217770000000     0.365090000000     1.3922     
V21      V      0.257350000000     0.482720000000     0.405860000000     1.38472    
V22      V      0.254710000000     0.040210000000     0.405240000000     1.38022    
V23      V      0.265600000000     0.275370000000     0.392890000000     1.39161    
V24      V      0.263140000000     0.217860000000     0.392540000000     1.38561    
V25      V      0.028690000000     0.043340000000     0.622630000000     1.38365    
V26      V      0.031120000000     0.485860000000     0.624580000000     1.3874     
V27      V      0.517380000000     0.220110000000     0.617780000000     1.3851     
V28      V      0.514860000000     0.277620000000     0.616730000000     1.39753    
V29      V      0.278500000000     0.485080000000     0.654250000000     1.38837    
V30      V      0.280270000000     0.042610000000     0.654130000000     1.37936    
V31      V      0.266260000000     0.220430000000     0.646260000000     1.38321    
V32      V      0.268160000000     0.277960000000     0.644860000000     1.39775    
V33      V      0.038380000000     0.998680000000     0.122570000000     1.39874    
V34      V      0.480130000000     0.496800000000     0.122440000000     1.38142    
V35      V      0.476940000000     0.747520000000     0.114010000000     1.39157    
V36      V      0.035120000000     0.745240000000     0.116880000000     1.38771    
V37      V      0.233610000000     0.000910000000     0.153090000000     1.37573    
V38      V      0.291870000000     0.499160000000     0.154680000000     1.38789    
V39      V      0.294880000000     0.750010000000     0.138960000000     1.39509    
V40      V      0.236640000000     0.747720000000     0.140600000000     1.3884     
V41      V      0.043550000000     0.520490000000     0.875150000000     1.38659    
V42      V      0.485270000000     0.521430000000     0.873620000000     1.38794    
V43      V      0.045770000000     0.772070000000     0.868830000000     1.38316    
V44      V      0.487510000000     0.772670000000     0.866290000000     1.39367    
V45      V      0.293430000000     0.026410000000     0.904540000000     1.38051    
V46      V      0.235130000000     0.525510000000     0.904420000000     1.38791    
V47      V      0.232940000000     0.777140000000     0.895860000000     1.38567    
V48      V      0.291260000000     0.777750000000     0.894870000000     1.39652    
V49      V      0.005910000000     0.537960000000     0.373100000000     1.38778    
V50      V      0.003940000000     0.980450000000     0.374290000000     1.38383    
V51      V      0.515140000000     0.775310000000     0.364950000000     1.39209    
V52      V      0.017080000000     0.717760000000     0.365090000000     1.39204    
V53      V      0.257350000000     0.982720000000     0.405860000000     1.38736    
V54      V      0.254710000000     0.540210000000     0.405240000000     1.38602    
V55      V      0.265600000000     0.775370000000     0.392890000000     1.39161    
V56      V      0.263140000000     0.717860000000     0.392540000000     1.38553    
V57      V      0.028690000000     0.543340000000     0.622630000000     1.38939    
V58      V      0.031120000000     0.985860000000     0.624580000000     1.39017    
V59      V      0.517380000000     0.720110000000     0.617780000000     1.38501    
V60      V      0.514860000000     0.777620000000     0.616730000000     1.39754    
V61      V      0.278500000000     0.985080000000     0.654250000000     1.39085    
V62      V      0.280270000000     0.542620000000     0.654130000000     1.38524    
V63      V      0.266260000000     0.720430000000     0.646260000000     1.38304    
V64      V      0.268160000000     0.777960000000     0.644860000000     1.39794    
V65      V      0.538380000000     0.498670000000     0.122570000000     1.39016    
V66      V      0.980130000000     0.996800000000     0.122440000000     1.38999    
V67      V      0.976940000000     0.247520000000     0.114010000000     1.3917     
V68      V      0.535120000000     0.245240000000     0.116880000000     1.38798    
V69      V      0.733620000000     0.500910000000     0.153090000000     1.39204    
V70      V      0.791870000000     0.999160000000     0.154680000000     1.40471    
V71      V      0.794880000000     0.250010000000     0.138960000000     1.39513    
V72      V      0.736640000000     0.247720000000     0.140600000000     1.38829    
V73      V      0.543550000000     0.020490000000     0.875150000000     1.38226    
V74      V      0.985270000000     0.021430000000     0.873620000000     1.38366    
V75      V      0.545770000000     0.272070000000     0.868830000000     1.38353    
V76      V      0.987510000000     0.272670000000     0.866290000000     1.39375    
V77      V      0.793430000000     0.526410000000     0.904540000000     1.38491    
V78      V      0.735130000000     0.025510000000     0.904420000000     1.38318    
V79      V      0.732940000000     0.277140000000     0.895860000000     1.38568    
V80      V      0.791260000000     0.277750000000     0.894870000000     1.39651    
V81      V      0.505910000000     0.037960000000     0.373100000000     1.38228    
V82      V      0.503940000000     0.480450000000     0.374290000000     1.38166    
V83      V      0.015140000000     0.275320000000     0.364950000000     1.39171    
V84      V      0.517080000000     0.217770000000     0.365090000000     1.39276    
V85      V      0.757350000000     0.482720000000     0.405860000000     1.38472    
V86      V      0.754710000000     0.040210000000     0.405240000000     1.38022    
V87      V      0.765600000000     0.275370000000     0.392890000000     1.39161    
V88      V      0.763140000000     0.217860000000     0.392540000000     1.38562    
V89      V      0.528690000000     0.043340000000     0.622630000000     1.3839     
V90      V      0.531120000000     0.485860000000     0.624580000000     1.38764    
V91      V      0.017380000000     0.220110000000     0.617780000000     1.38485    
V92      V      0.014860000000     0.277620000000     0.616730000000     1.39727    
V93      V      0.778510000000     0.485080000000     0.654250000000     1.38836    
V94      V      0.780270000000     0.042610000000     0.654130000000     1.37935    
V95      V      0.766260000000     0.220430000000     0.646260000000     1.38317    
V96      V      0.768160000000     0.277960000000     0.644860000000     1.39775    
V97      V      0.538380000000     0.998680000000     0.122570000000     1.39915    
V98      V      0.980130000000     0.496800000000     0.122440000000     1.38147    
V99      V      0.976940000000     0.747520000000     0.114010000000     1.39166    
V100     V      0.535120000000     0.745240000000     0.116880000000     1.38797    
V101     V      0.733620000000     0.000910000000     0.153090000000     1.37567    
V102     V      0.791870000000     0.499160000000     0.154680000000     1.3877     
V103     V      0.794880000000     0.750010000000     0.138960000000     1.39511    
V104     V      0.736640000000     0.747720000000     0.140600000000     1.38827    
V105     V      0.543550000000     0.520490000000     0.875150000000     1.3869     
V106     V      0.985270000000     0.521430000000     0.873620000000     1.38809    
V107     V      0.545770000000     0.772070000000     0.868830000000     1.38351    
V108     V      0.987510000000     0.772670000000     0.866290000000     1.39374    
V109     V      0.793430000000     0.026410000000     0.904540000000     1.38051    
V110     V      0.735130000000     0.525510000000     0.904420000000     1.3879     
V111     V      0.732940000000     0.777140000000     0.895860000000     1.38567    
V112     V      0.791260000000     0.777750000000     0.894870000000     1.39652    
V113     V      0.505910000000     0.537960000000     0.373100000000     1.38801    
V114     V      0.503940000000     0.980450000000     0.374290000000     1.38438    
V115     V      0.015140000000     0.775310000000     0.364950000000     1.39189    
V116     V      0.517080000000     0.717760000000     0.365090000000     1.3926     
V117     V      0.757350000000     0.982720000000     0.405860000000     1.38736    
V118     V      0.754710000000     0.540210000000     0.405240000000     1.38601    
V119     V      0.765600000000     0.775370000000     0.392890000000     1.39162    
V120     V      0.763140000000     0.717860000000     0.392540000000     1.38553    
V121     V      0.528690000000     0.543340000000     0.622630000000     1.38964    
V122     V      0.531120000000     0.985860000000     0.624580000000     1.39041    
V123     V      0.017380000000     0.720110000000     0.617780000000     1.38475    
V124     V      0.014860000000     0.777620000000     0.616730000000     1.39728    
V125     V      0.778510000000     0.985080000000     0.654250000000     1.39084    
V126     V      0.780270000000     0.542620000000     0.654130000000     1.38524    
V127     V      0.766260000000     0.720430000000     0.646260000000     1.383      
V128     V      0.768160000000     0.777960000000     0.644860000000     1.39793    


