data_structure

_audit_creation_method RASPA-1.0
_audit_creation_date 2023-5-19
_audit_author_name 'Poobodin Mano'

_cell_length_a    41.5573
_cell_length_b    42.1198
_cell_length_c    41.3766
_cell_angle_alpha 90
_cell_angle_beta  90
_cell_angle_gamma 90
_cell_volume      72425

_symmetry_cell_setting          triclinic
_symmetry_space_group_name_Hall 'P 1'
_symmetry_space_group_name_H-M  'P 1'
_symmetry_Int_Tables_number     1

_symmetry_equiv_pos_as_xyz 'x,y,z'

loop_
_atom_site_label
_atom_site_type_symbol
_atom_site_fract_x
_atom_site_fract_y
_atom_site_fract_z
_atom_site_charge
C1       C      0.494620000000     0.063580000000     0.260920000000     0.468948   
C2       C      0.505550000000     0.443930000000     0.255330000000     0.473432   
C3       C      0.439660000000     0.499010000000     0.257310000000     0.477372   
C4       C      0.060970000000     0.509960000000     0.258480000000     0.473432   
C5       C      0.006210000000     0.192590000000     0.255650000000     0.474587   
C6       C      0.009230000000     0.312580000000     0.258170000000     0.468514   
C7       C      0.508930000000     0.253530000000     0.195250000000     0.468763   
C8       C      0.505500000000     0.249980000000     0.317570000000     0.471936   
C9       C      0.314840000000     0.019280000000     0.277100000000     0.457472   
C10      C      0.193460000000     0.015440000000     0.268430000000     0.455      
C11      C      0.260130000000     0.517350000000     0.211790000000     0.475098   
C12      C      0.249860000000     0.518520000000     0.333250000000     0.477908   
C13      C      0.267760000000     0.511420000000     0.078680000000     0.470995   
C14      C      0.272070000000     0.499750000000     0.457330000000     0.471511   
C15      C      0.271840000000     0.446690000000     0.525090000000     0.47184    
C16      C      0.269450000000     0.065820000000     0.511070000000     0.473665   
C17      C      0.016790000000     0.254890000000     0.063430000000     0.474471   
C18      C      0.020240000000     0.231590000000     0.443550000000     0.471589   
C19      C      0.078700000000     0.247310000000     0.504030000000     0.477413   
C20      C      0.457360000000     0.238500000000     0.503660000000     0.475977   
C21      C      0.264860000000     0.196750000000     0.516210000000     0.471922   
C22      C      0.269140000000     0.316440000000     0.523130000000     0.477529   
C23      C      0.207070000000     0.259890000000     0.021500000000     0.472496   
C24      C      0.328490000000     0.254910000000     0.017660000000     0.472666   
C25      C      0.378760000000     0.271160000000     0.490530000000    -0.00859609 
C26      C      0.380370000000     0.241240000000     0.043160000000    -0.0341769  
C27      C      0.405910000000     0.250380000000     0.477490000000    -0.00676327 
C28      C      0.406020000000     0.218700000000     0.029100000000     0.0742162  
C29      C      0.426210000000     0.204370000000     0.056780000000    -0.179571   
C30      C      0.154870000000     0.245450000000     0.045590000000    -0.0101166  
C31      C      0.158010000000     0.285970000000     0.501260000000    -0.0349482  
C32      C      0.129150000000     0.227350000000     0.026600000000    -0.00603412 
C33      C      0.130990000000     0.269080000000     0.482820000000     0.0774526  
C34      C      0.112070000000     0.293160000000     0.462260000000    -0.182204   
C35      C      0.302020000000     0.396480000000     0.521710000000    -0.0099313  
C36      C      0.248500000000     0.398570000000     0.049960000000    -0.0354346  
C37      C      0.291860000000     0.366080000000     0.504630000000    -0.00483471 
C38      C      0.239620000000     0.366060000000     0.035430000000     0.0751255  
C39      C      0.218130000000     0.347400000000     0.059110000000    -0.183428   
C40      C      0.274450000000     0.145330000000     0.042250000000    -0.00901905 
C41      C      0.242610000000     0.148530000000     0.990440000000    -0.0358838  
C42      C      0.291510000000     0.116010000000     0.529560000000    -0.00581311 
C43      C      0.255960000000     0.115600000000     0.480510000000     0.0753184  
C44      C      0.230500000000     0.097020000000     0.961200000000    -0.182907   
C45      C      0.294100000000     0.516380000000     0.404720000000    -0.0121388  
C46      C      0.248400000000     0.477390000000     0.407580000000    -0.035633   
C47      C      0.273400000000     0.038310000000     0.383490000000    -0.00550277 
C48      C      0.227860000000     0.999150000000     0.386310000000     0.0976404  
C49      C      0.202000000000     0.480430000000     0.367650000000    -0.183413   
C50      C      0.236940000000     0.023750000000     0.127740000000    -0.00862256 
C51      C      0.287980000000     0.491280000000     0.130520000000    -0.0364623  
C52      C      0.246090000000     0.039800000000     0.159430000000    -0.00777322 
C53      C      0.295000000000     0.505320000000     0.164130000000     0.0762254  
C54      C      0.313730000000     0.481140000000     0.184810000000    -0.182778   
C55      C      0.046840000000     0.243380000000     0.392030000000    -0.00471407 
C56      C      0.998580000000     0.207780000000     0.393860000000    -0.0347862  
C57      C      0.529390000000     0.265880000000     0.369240000000    -0.007986   
C58      C      0.480740000000     0.230420000000     0.370270000000     0.0733992  
C59      C      0.955460000000     0.211670000000     0.350840000000    -0.179976   
C60      C      0.532870000000     0.232260000000     0.145350000000    -0.0102346  
C61      C      0.483090000000     0.266520000000     0.143090000000    -0.0351349  
C62      C      0.045160000000     0.248160000000     0.114640000000    -0.00562292 
C63      C      0.996560000000     0.283550000000     0.112930000000     0.0755238  
C64      C      0.468620000000     0.296600000000     0.092310000000    -0.182164   
C65      C      0.144410000000     0.485700000000     0.254280000000    -0.0105202  
C66      C      0.141310000000     0.036030000000     0.287450000000    -0.0373991  
C67      C      0.113490000000     0.495350000000     0.236850000000    -0.00523314 
C68      C      0.108540000000     0.043570000000     0.271760000000     0.075305   
C69      C      0.087070000000     0.062360000000     0.295330000000    -0.183269   
C70      C      0.366980000000     0.041760000000     0.259720000000    -0.0121729  
C71      C      0.364930000000     0.495960000000     0.298630000000    -0.0365088  
C72      C      0.389520000000     0.022510000000     0.237590000000    -0.0129029  
C73      C      0.386890000000     0.476670000000     0.276410000000     0.0800289  
C74      C      0.405700000000     0.451230000000     0.295200000000    -0.184944   
C75      C      0.489240000000     0.361960000000     0.282530000000    -0.010025   
C76      C      0.038120000000     0.362460000000     0.246850000000    -0.0345048  
C77      C      0.479440000000     0.394450000000     0.269380000000    -0.00729132 
C78      C      0.026940000000     0.393800000000     0.231120000000     0.0762365  
C79      C      0.056730000000     0.412660000000     0.219810000000    -0.184314   
C80      C      0.473080000000     0.113600000000     0.238270000000    -0.00904146 
C81      C      0.502940000000     0.113380000000     0.291010000000    -0.0354048  
C82      C      0.991070000000     0.143720000000     0.228130000000    -0.00740884 
C83      C      0.024270000000     0.140900000000     0.279340000000     0.0753498  
C84      C      0.037150000000     0.159460000000     0.308820000000    -0.181683   
C85      C      0.494620000000     0.063580000000     0.760920000000     0.468948   
C86      C      0.505550000000     0.443930000000     0.755330000000     0.473431   
C87      C      0.439660000000     0.499010000000     0.757310000000     0.477372   
C88      C      0.060970000000     0.509960000000     0.758480000000     0.473431   
C89      C      0.006210000000     0.192590000000     0.755650000000     0.474587   
C90      C      0.009230000000     0.312580000000     0.758170000000     0.468514   
C91      C      0.508930000000     0.253530000000     0.695250000000     0.468763   
C92      C      0.505500000000     0.249980000000     0.817570000000     0.471936   
C93      C      0.314840000000     0.019280000000     0.777100000000     0.457472   
C94      C      0.193460000000     0.015440000000     0.768430000000     0.455      
C95      C      0.260130000000     0.517350000000     0.711790000000     0.475098   
C96      C      0.249860000000     0.518520000000     0.833250000000     0.477908   
C97      C      0.267760000000     0.511420000000     0.578680000000     0.471001   
C98      C      0.272070000000     0.499750000000     0.957330000000     0.471498   
C99      C      0.271840000000     0.446690000000     0.025090000000     0.471827   
C100     C      0.269450000000     0.065820000000     0.011070000000     0.47365    
C101     C      0.016790000000     0.254890000000     0.563430000000     0.474462   
C102     C      0.020240000000     0.231590000000     0.943550000000     0.47159    
C103     C      0.078700000000     0.247310000000     0.004030000000     0.477415   
C104     C      0.457360000000     0.238500000000     0.003660000000     0.475877   
C105     C      0.264860000000     0.196750000000     0.016210000000     0.471831   
C106     C      0.269140000000     0.316440000000     0.023130000000     0.477733   
C107     C      0.207070000000     0.259890000000     0.521500000000     0.472598   
C108     C      0.328490000000     0.254910000000     0.517660000000     0.472757   
C109     C      0.378760000000     0.271160000000     0.990530000000    -0.00844311 
C110     C      0.380370000000     0.241240000000     0.543160000000    -0.0341741  
C111     C      0.405910000000     0.250380000000     0.977490000000    -0.00674238 
C112     C      0.406020000000     0.218700000000     0.529100000000     0.0742244  
C113     C      0.426210000000     0.204370000000     0.556780000000    -0.179574   
C114     C      0.154870000000     0.245450000000     0.545590000000    -0.010097   
C115     C      0.158010000000     0.285970000000     0.001260000000    -0.0351515  
C116     C      0.129150000000     0.227350000000     0.526600000000    -0.00605546 
C117     C      0.130990000000     0.269080000000     0.982820000000     0.0776239  
C118     C      0.112070000000     0.293160000000     0.962260000000    -0.182259   
C119     C      0.302020000000     0.396480000000     0.021710000000    -0.00987422 
C120     C      0.248500000000     0.398570000000     0.549960000000    -0.0354347  
C121     C      0.291860000000     0.366080000000     0.004630000000    -0.00503846 
C122     C      0.239620000000     0.366060000000     0.535430000000     0.0751255  
C123     C      0.218130000000     0.347400000000     0.559110000000    -0.183428   
C124     C      0.274450000000     0.145330000000     0.542250000000    -0.00900268 
C125     C      0.242610000000     0.148530000000     0.490440000000    -0.036031   
C126     C      0.291510000000     0.116010000000     0.029560000000    -0.00578574 
C127     C      0.255960000000     0.115600000000     0.980510000000     0.0753526  
C128     C      0.230500000000     0.097020000000     0.461200000000    -0.182902   
C129     C      0.294100000000     0.516380000000     0.904720000000    -0.0121402  
C130     C      0.248400000000     0.477390000000     0.907580000000    -0.0356347  
C131     C      0.273400000000     0.038310000000     0.883490000000    -0.0055022  
C132     C      0.227860000000     0.999150000000     0.886310000000     0.0976403  
C133     C      0.202000000000     0.480430000000     0.867650000000    -0.183415   
C134     C      0.236940000000     0.023750000000     0.627740000000    -0.00862282 
C135     C      0.287980000000     0.491280000000     0.630520000000    -0.0364624  
C136     C      0.246090000000     0.039800000000     0.659430000000    -0.00777337 
C137     C      0.295000000000     0.505320000000     0.664130000000     0.0762253  
C138     C      0.313730000000     0.481140000000     0.684810000000    -0.182779   
C139     C      0.046840000000     0.243380000000     0.892030000000    -0.00471288 
C140     C      0.998580000000     0.207780000000     0.893860000000    -0.034788   
C141     C      0.529390000000     0.265880000000     0.869240000000    -0.00798676 
C142     C      0.480740000000     0.230420000000     0.870270000000     0.0734003  
C143     C      0.955460000000     0.211670000000     0.850840000000    -0.179978   
C144     C      0.532870000000     0.232260000000     0.645350000000    -0.010235   
C145     C      0.483090000000     0.266520000000     0.643090000000    -0.0351356  
C146     C      0.045160000000     0.248160000000     0.614640000000    -0.00562292 
C147     C      0.996560000000     0.283550000000     0.612930000000     0.0755247  
C148     C      0.468620000000     0.296600000000     0.592310000000    -0.182169   
C149     C      0.144410000000     0.485700000000     0.754280000000    -0.0105205  
C150     C      0.141310000000     0.036030000000     0.787450000000    -0.0374     
C151     C      0.113490000000     0.495350000000     0.736850000000    -0.0052334  
C152     C      0.108540000000     0.043570000000     0.771760000000     0.0753057  
C153     C      0.087070000000     0.062360000000     0.795330000000    -0.18327    
C154     C      0.366980000000     0.041760000000     0.759720000000    -0.0121733  
C155     C      0.364930000000     0.495960000000     0.798630000000    -0.0365099  
C156     C      0.389520000000     0.022510000000     0.737590000000    -0.0129029  
C157     C      0.386890000000     0.476670000000     0.776410000000     0.0800297  
C158     C      0.405700000000     0.451230000000     0.795200000000    -0.184946   
C159     C      0.489240000000     0.361960000000     0.782530000000    -0.0100255  
C160     C      0.038120000000     0.362460000000     0.746850000000    -0.0345052  
C161     C      0.479440000000     0.394450000000     0.769380000000    -0.00729141 
C162     C      0.026940000000     0.393800000000     0.731120000000     0.0762366  
C163     C      0.056730000000     0.412660000000     0.719810000000    -0.184315   
C164     C      0.473080000000     0.113600000000     0.738270000000    -0.00904184 
C165     C      0.502940000000     0.113380000000     0.791010000000    -0.0354058  
C166     C      0.991070000000     0.143720000000     0.728130000000    -0.00740907 
C167     C      0.024270000000     0.140900000000     0.779340000000     0.0753503  
C168     C      0.037150000000     0.159460000000     0.808820000000    -0.181684   
C169     C      0.494620000000     0.563580000000     0.260920000000     0.470352   
C170     C      0.505550000000     0.943930000000     0.255330000000     0.471318   
C171     C      0.439660000000     0.999010000000     0.257310000000     0.487293   
C172     C      0.060970000000     0.009960000000     0.258480000000     0.471723   
C173     C      0.006210000000     0.692590000000     0.255650000000     0.474554   
C174     C      0.009230000000     0.812580000000     0.258170000000     0.468588   
C175     C      0.508930000000     0.753530000000     0.195250000000     0.468749   
C176     C      0.505500000000     0.749980000000     0.317570000000     0.471919   
C177     C      0.314840000000     0.519280000000     0.277100000000     0.468613   
C178     C      0.193460000000     0.515440000000     0.268430000000     0.466794   
C179     C      0.260130000000     0.017350000000     0.211790000000     0.462769   
C180     C      0.249860000000     0.018520000000     0.333250000000     0.466518   
C181     C      0.267760000000     0.011420000000     0.078680000000     0.469307   
C182     C      0.272070000000     0.999750000000     0.457330000000     0.48156    
C183     C      0.271840000000     0.946690000000     0.525090000000     0.469712   
C184     C      0.269450000000     0.565820000000     0.511070000000     0.474829   
C185     C      0.016790000000     0.754890000000     0.063430000000     0.474683   
C186     C      0.020240000000     0.731600000000     0.443550000000     0.471541   
C187     C      0.078700000000     0.747310000000     0.504030000000     0.477328   
C188     C      0.457360000000     0.738500000000     0.503660000000     0.47591    
C189     C      0.264860000000     0.696750000000     0.516210000000     0.471902   
C190     C      0.269140000000     0.816440000000     0.523130000000     0.477534   
C191     C      0.207070000000     0.759890000000     0.021500000000     0.472475   
C192     C      0.328490000000     0.754910000000     0.017660000000     0.472663   
C193     C      0.378760000000     0.771160000000     0.490530000000    -0.00865414 
C194     C      0.380370000000     0.741240000000     0.043160000000    -0.0342264  
C195     C      0.405910000000     0.750380000000     0.477490000000    -0.00675371 
C196     C      0.406020000000     0.718700000000     0.029100000000     0.0742705  
C197     C      0.426210000000     0.704370000000     0.056780000000    -0.179742   
C198     C      0.154870000000     0.745460000000     0.045590000000    -0.0100629  
C199     C      0.158010000000     0.785970000000     0.501260000000    -0.0350664  
C200     C      0.129150000000     0.727350000000     0.026600000000    -0.00613755 
C201     C      0.130990000000     0.769080000000     0.482820000000     0.0776024  
C202     C      0.112070000000     0.793160000000     0.462260000000    -0.182402   
C203     C      0.302020000000     0.896480000000     0.521710000000    -0.0101681  
C204     C      0.248500000000     0.898570000000     0.049960000000    -0.0357291  
C205     C      0.291860000000     0.866080000000     0.504630000000    -0.00473024 
C206     C      0.239620000000     0.866060000000     0.035430000000     0.0753353  
C207     C      0.218130000000     0.847400000000     0.059110000000    -0.183631   
C208     C      0.274450000000     0.645330000000     0.042250000000    -0.00904361 
C209     C      0.242610000000     0.648530000000     0.990440000000    -0.0360074  
C210     C      0.291510000000     0.616010000000     0.529560000000    -0.00581073 
C211     C      0.255960000000     0.615600000000     0.480510000000     0.0755752  
C212     C      0.230500000000     0.597020000000     0.961200000000    -0.183273   
C213     C      0.294100000000     0.016380000000     0.404720000000    -0.0190931  
C214     C      0.248400000000     0.977390000000     0.407580000000    -0.0394204  
C215     C      0.273400000000     0.538320000000     0.383490000000    -0.00646199 
C216     C      0.227860000000     0.499150000000     0.386310000000     0.0795889  
C217     C      0.202000000000     0.980430000000     0.367650000000    -0.18952    
C218     C      0.236940000000     0.523750000000     0.127740000000    -0.0094242  
C219     C      0.287980000000     0.991280000000     0.130520000000    -0.0177769  
C220     C      0.246090000000     0.539800000000     0.159430000000    -0.00600404 
C221     C      0.295000000000     0.005320000000     0.164130000000     0.0569424  
C222     C      0.313730000000     0.981140000000     0.184810000000    -0.169751   
C223     C      0.046840000000     0.743380000000     0.392030000000    -0.00471319 
C224     C      0.998580000000     0.707780000000     0.393860000000    -0.0348301  
C225     C      0.529390000000     0.765880000000     0.369240000000    -0.00804658 
C226     C      0.480740000000     0.730420000000     0.370270000000     0.0734043  
C227     C      0.955460000000     0.711670000000     0.350840000000    -0.180023   
C228     C      0.532870000000     0.732260000000     0.145350000000    -0.0102617  
C229     C      0.483090000000     0.766520000000     0.143090000000    -0.0351779  
C230     C      0.045160000000     0.748160000000     0.114640000000    -0.00563289 
C231     C      0.996560000000     0.783550000000     0.112930000000     0.0755892  
C232     C      0.468620000000     0.796600000000     0.092310000000    -0.182312   
C233     C      0.144410000000     0.985700000000     0.254280000000    -0.00827972 
C234     C      0.141310000000     0.536040000000     0.287450000000    -0.0365084  
C235     C      0.113490000000     0.995350000000     0.236850000000     0.0127278  
C236     C      0.108540000000     0.543570000000     0.271760000000     0.0755649  
C237     C      0.087070000000     0.562360000000     0.295330000000    -0.183451   
C238     C      0.366980000000     0.541760000000     0.259720000000    -0.0129965  
C239     C      0.364930000000     0.995970000000     0.298630000000    -0.0181323  
C240     C      0.389520000000     0.522510000000     0.237590000000    -0.00592933 
C241     C      0.386890000000     0.976670000000     0.276410000000     0.0768618  
C242     C      0.405700000000     0.951240000000     0.295200000000    -0.183644   
C243     C      0.489240000000     0.861960000000     0.282530000000    -0.010016   
C244     C      0.038120000000     0.862460000000     0.246850000000    -0.0346454  
C245     C      0.479440000000     0.894450000000     0.269380000000    -0.00738629 
C246     C      0.026940000000     0.893800000000     0.231120000000     0.0765942  
C247     C      0.056730000000     0.912660000000     0.219810000000    -0.184931   
C248     C      0.473080000000     0.613600000000     0.238270000000    -0.00897792 
C249     C      0.502940000000     0.613380000000     0.291010000000    -0.03538    
C250     C      0.991070000000     0.643720000000     0.228130000000    -0.00745958 
C251     C      0.024270000000     0.640900000000     0.279340000000     0.0753659  
C252     C      0.037150000000     0.659460000000     0.308820000000    -0.181817   
C253     C      0.494620000000     0.563580000000     0.760920000000     0.470351   
C254     C      0.505550000000     0.943930000000     0.755330000000     0.471317   
C255     C      0.439660000000     0.999010000000     0.757310000000     0.487293   
C256     C      0.060970000000     0.009960000000     0.758480000000     0.471723   
C257     C      0.006210000000     0.692590000000     0.755650000000     0.474554   
C258     C      0.009230000000     0.812580000000     0.758170000000     0.468588   
C259     C      0.508930000000     0.753530000000     0.695250000000     0.468748   
C260     C      0.505500000000     0.749980000000     0.817570000000     0.471919   
C261     C      0.314840000000     0.519280000000     0.777100000000     0.468612   
C262     C      0.193460000000     0.515440000000     0.768430000000     0.466794   
C263     C      0.260130000000     0.017350000000     0.711790000000     0.462769   
C264     C      0.249860000000     0.018520000000     0.833250000000     0.466518   
C265     C      0.267760000000     0.011420000000     0.578680000000     0.469313   
C266     C      0.272070000000     0.999750000000     0.957330000000     0.481545   
C267     C      0.271840000000     0.946690000000     0.025090000000     0.4697     
C268     C      0.269450000000     0.565820000000     0.011070000000     0.474813   
C269     C      0.016790000000     0.754890000000     0.563430000000     0.474674   
C270     C      0.020240000000     0.731600000000     0.943550000000     0.471542   
C271     C      0.078700000000     0.747310000000     0.004030000000     0.47733    
C272     C      0.457360000000     0.738500000000     0.003660000000     0.475811   
C273     C      0.264860000000     0.696750000000     0.016210000000     0.471812   
C274     C      0.269140000000     0.816440000000     0.023130000000     0.477739   
C275     C      0.207070000000     0.759890000000     0.521500000000     0.472576   
C276     C      0.328490000000     0.754910000000     0.517660000000     0.472754   
C277     C      0.378760000000     0.771160000000     0.990530000000    -0.00850192 
C278     C      0.380370000000     0.741240000000     0.543160000000    -0.0342236  
C279     C      0.405910000000     0.750380000000     0.977490000000    -0.00673288 
C280     C      0.406020000000     0.718700000000     0.529100000000     0.0742787  
C281     C      0.426210000000     0.704370000000     0.556780000000    -0.179745   
C282     C      0.154870000000     0.745460000000     0.545590000000    -0.0100434  
C283     C      0.158010000000     0.785970000000     0.001260000000    -0.0352688  
C284     C      0.129150000000     0.727350000000     0.526600000000    -0.0061589  
C285     C      0.130990000000     0.769080000000     0.982820000000     0.0777729  
C286     C      0.112070000000     0.793160000000     0.962260000000    -0.182457   
C287     C      0.302020000000     0.896480000000     0.021710000000    -0.0101114  
C288     C      0.248500000000     0.898570000000     0.549960000000    -0.0357292  
C289     C      0.291860000000     0.866080000000     0.004630000000    -0.00493267 
C290     C      0.239620000000     0.866060000000     0.535430000000     0.0753352  
C291     C      0.218130000000     0.847400000000     0.559110000000    -0.18363    
C292     C      0.274450000000     0.645330000000     0.542250000000    -0.00902721 
C293     C      0.242610000000     0.648530000000     0.490440000000    -0.0361542  
C294     C      0.291510000000     0.616010000000     0.029560000000    -0.00578325 
C295     C      0.255960000000     0.615600000000     0.980510000000     0.0756093  
C296     C      0.230500000000     0.597020000000     0.461200000000    -0.183269   
C297     C      0.294100000000     0.016380000000     0.904720000000    -0.019094   
C298     C      0.248400000000     0.977390000000     0.907580000000    -0.0394219  
C299     C      0.273400000000     0.538320000000     0.883490000000    -0.00646133 
C300     C      0.227860000000     0.499150000000     0.886310000000     0.0795901  
C301     C      0.202000000000     0.980430000000     0.867650000000    -0.189521   
C302     C      0.236940000000     0.523750000000     0.627740000000    -0.00942445 
C303     C      0.287980000000     0.991280000000     0.630520000000    -0.0177771  
C304     C      0.246090000000     0.539800000000     0.659430000000    -0.00600421 
C305     C      0.295000000000     0.005320000000     0.664130000000     0.0569423  
C306     C      0.313730000000     0.981140000000     0.684810000000    -0.169752   
C307     C      0.046840000000     0.743380000000     0.892030000000    -0.00471201 
C308     C      0.998580000000     0.707780000000     0.893860000000    -0.0348319  
C309     C      0.529390000000     0.765880000000     0.869240000000    -0.00804733 
C310     C      0.480740000000     0.730420000000     0.870270000000     0.0734054  
C311     C      0.955460000000     0.711670000000     0.850840000000    -0.180024   
C312     C      0.532870000000     0.732260000000     0.645350000000    -0.010262   
C313     C      0.483090000000     0.766520000000     0.643090000000    -0.0351786  
C314     C      0.045160000000     0.748160000000     0.614640000000    -0.00563289 
C315     C      0.996560000000     0.783550000000     0.612930000000     0.0755901  
C316     C      0.468620000000     0.796600000000     0.592310000000    -0.182317   
C317     C      0.144410000000     0.985700000000     0.754280000000    -0.00828015 
C318     C      0.141310000000     0.536040000000     0.787450000000    -0.0365094  
C319     C      0.113490000000     0.995350000000     0.736850000000     0.0127271  
C320     C      0.108540000000     0.543570000000     0.771760000000     0.0755656  
C321     C      0.087070000000     0.562360000000     0.795330000000    -0.183452   
C322     C      0.366980000000     0.541760000000     0.759720000000    -0.0129969  
C323     C      0.364930000000     0.995970000000     0.798630000000    -0.0181342  
C324     C      0.389520000000     0.522510000000     0.737590000000    -0.00592954 
C325     C      0.386890000000     0.976670000000     0.776410000000     0.0768627  
C326     C      0.405700000000     0.951240000000     0.795200000000    -0.183646   
C327     C      0.489240000000     0.861960000000     0.782530000000    -0.0100164  
C328     C      0.038120000000     0.862460000000     0.746850000000    -0.0346458  
C329     C      0.479440000000     0.894450000000     0.769380000000    -0.00738638 
C330     C      0.026940000000     0.893800000000     0.731120000000     0.0765942  
C331     C      0.056730000000     0.912660000000     0.719810000000    -0.184931   
C332     C      0.473080000000     0.613600000000     0.738270000000    -0.00897831 
C333     C      0.502940000000     0.613380000000     0.791010000000    -0.035381   
C334     C      0.991070000000     0.643720000000     0.728130000000    -0.00745981 
C335     C      0.024270000000     0.640900000000     0.779340000000     0.0753665  
C336     C      0.037150000000     0.659460000000     0.808820000000    -0.181818   
C337     C      0.994620000000     0.063580000000     0.260920000000     0.468911   
C338     C      0.005550000000     0.443930000000     0.255330000000     0.473387   
C339     C      0.939660000000     0.499010000000     0.257310000000     0.477325   
C340     C      0.560970000000     0.509960000000     0.258480000000     0.473515   
C341     C      0.506210000000     0.192590000000     0.255650000000     0.47483    
C342     C      0.509230000000     0.312580000000     0.258170000000     0.468756   
C343     C      0.008930000000     0.253530000000     0.195250000000     0.468512   
C344     C      0.005500000000     0.249980000000     0.317570000000     0.471687   
C345     C      0.814840000000     0.019280000000     0.277100000000     0.457559   
C346     C      0.693460000000     0.015440000000     0.268430000000     0.454916   
C347     C      0.760120000000     0.517350000000     0.211790000000     0.47504    
C348     C      0.749860000000     0.518520000000     0.333250000000     0.477901   
C349     C      0.767760000000     0.511420000000     0.078680000000     0.470679   
C350     C      0.772070000000     0.499750000000     0.457330000000     0.4715     
C351     C      0.771840000000     0.446690000000     0.525090000000     0.471826   
C352     C      0.769450000000     0.065820000000     0.511070000000     0.473348   
C353     C      0.516790000000     0.254890000000     0.063430000000     0.474457   
C354     C      0.520240000000     0.231590000000     0.443550000000     0.471634   
C355     C      0.578700000000     0.247310000000     0.504030000000     0.477359   
C356     C      0.957360000000     0.238500000000     0.503660000000     0.475928   
C357     C      0.764860000000     0.196750000000     0.516210000000     0.471865   
C358     C      0.769140000000     0.316440000000     0.523130000000     0.477528   
C359     C      0.707070000000     0.259890000000     0.021500000000     0.472495   
C360     C      0.828490000000     0.254910000000     0.017660000000     0.472667   
C361     C      0.878760000000     0.271160000000     0.490530000000    -0.00859571 
C362     C      0.880370000000     0.241240000000     0.043160000000    -0.0341738  
C363     C      0.905910000000     0.250380000000     0.477490000000    -0.00676719 
C364     C      0.906020000000     0.218700000000     0.029100000000     0.0741987  
C365     C      0.926220000000     0.204370000000     0.056780000000    -0.179616   
C366     C      0.654870000000     0.245450000000     0.045590000000    -0.0101172  
C367     C      0.658010000000     0.285970000000     0.501260000000    -0.0349487  
C368     C      0.629150000000     0.227350000000     0.026600000000    -0.00603592 
C369     C      0.630990000000     0.269080000000     0.482820000000     0.077447   
C370     C      0.612070000000     0.293160000000     0.462260000000    -0.182208   
C371     C      0.802020000000     0.396480000000     0.521710000000    -0.00993625 
C372     C      0.748490000000     0.398570000000     0.049960000000    -0.0355237  
C373     C      0.791860000000     0.366080000000     0.504630000000    -0.00483162 
C374     C      0.739620000000     0.366060000000     0.035430000000     0.0751449  
C375     C      0.718130000000     0.347400000000     0.059110000000    -0.18339    
C376     C      0.774450000000     0.145330000000     0.042250000000    -0.00904914 
C377     C      0.742610000000     0.148530000000     0.990440000000    -0.0358446  
C378     C      0.791510000000     0.116010000000     0.529560000000    -0.00582005 
C379     C      0.755960000000     0.115600000000     0.480510000000     0.075295   
C380     C      0.730500000000     0.097020000000     0.961200000000    -0.182896   
C381     C      0.794100000000     0.516380000000     0.404720000000    -0.0120929  
C382     C      0.748400000000     0.477390000000     0.407580000000    -0.03569    
C383     C      0.773400000000     0.038310000000     0.383490000000    -0.00552098 
C384     C      0.727860000000     0.999150000000     0.386310000000     0.0976542  
C385     C      0.702000000000     0.480430000000     0.367650000000    -0.183423   
C386     C      0.736940000000     0.023750000000     0.127740000000    -0.00869627 
C387     C      0.787980000000     0.491280000000     0.130520000000    -0.0364194  
C388     C      0.746090000000     0.039800000000     0.159430000000    -0.0077637  
C389     C      0.795000000000     0.505320000000     0.164130000000     0.0762179  
C390     C      0.813730000000     0.481140000000     0.184810000000    -0.18277    
C391     C      0.546840000000     0.243380000000     0.392030000000    -0.00471282 
C392     C      0.498580000000     0.207780000000     0.393860000000    -0.0351343  
C393     C      0.029390000000     0.265880000000     0.369240000000    -0.00800525 
C394     C      0.980740000000     0.230420000000     0.370270000000     0.0734736  
C395     C      0.455460000000     0.211670000000     0.350840000000    -0.179968   
C396     C      0.032870000000     0.232260000000     0.145350000000    -0.0102563  
C397     C      0.983090000000     0.266520000000     0.143090000000    -0.0350807  
C398     C      0.545160000000     0.248160000000     0.114640000000    -0.00562336 
C399     C      0.496560000000     0.283550000000     0.112930000000     0.0751452  
C400     C      0.968620000000     0.296600000000     0.092310000000    -0.182286   
C401     C      0.644410000000     0.485700000000     0.254280000000    -0.0105291  
C402     C      0.641310000000     0.036030000000     0.287450000000    -0.0374082  
C403     C      0.613490000000     0.495350000000     0.236850000000    -0.00522515 
C404     C      0.608540000000     0.043570000000     0.271760000000     0.0753141  
C405     C      0.587070000000     0.062360000000     0.295330000000    -0.183278   
C406     C      0.866980000000     0.041760000000     0.259720000000    -0.0121648  
C407     C      0.864930000000     0.495960000000     0.298630000000    -0.0364998  
C408     C      0.889520000000     0.022510000000     0.237590000000    -0.0129116  
C409     C      0.886880000000     0.476670000000     0.276410000000     0.0799794  
C410     C      0.905700000000     0.451230000000     0.295200000000    -0.18491    
C411     C      0.989230000000     0.361960000000     0.282530000000    -0.00971713 
C412     C      0.538120000000     0.362460000000     0.246850000000    -0.0344898  
C413     C      0.979440000000     0.394450000000     0.269380000000    -0.00722671 
C414     C      0.526940000000     0.393800000000     0.231120000000     0.0762481  
C415     C      0.556730000000     0.412660000000     0.219810000000    -0.184319   
C416     C      0.973080000000     0.113600000000     0.238270000000    -0.00913762 
C417     C      0.002940000000     0.113380000000     0.291010000000    -0.0358537  
C418     C      0.491070000000     0.143720000000     0.228130000000    -0.0078016  
C419     C      0.524270000000     0.140900000000     0.279340000000     0.0752654  
C420     C      0.537150000000     0.159460000000     0.308820000000    -0.181648   
C421     C      0.994620000000     0.063580000000     0.760920000000     0.46891    
C422     C      0.005550000000     0.443930000000     0.755330000000     0.473386   
C423     C      0.939660000000     0.499010000000     0.757310000000     0.477324   
C424     C      0.560970000000     0.509960000000     0.758480000000     0.473515   
C425     C      0.506210000000     0.192590000000     0.755650000000     0.47483    
C426     C      0.509230000000     0.312580000000     0.758170000000     0.468756   
C427     C      0.008930000000     0.253530000000     0.695250000000     0.468512   
C428     C      0.005500000000     0.249980000000     0.817570000000     0.471686   
C429     C      0.814840000000     0.019280000000     0.777100000000     0.457559   
C430     C      0.693460000000     0.015440000000     0.768430000000     0.454916   
C431     C      0.760120000000     0.517350000000     0.711790000000     0.47504    
C432     C      0.749860000000     0.518520000000     0.833250000000     0.477901   
C433     C      0.767760000000     0.511420000000     0.578680000000     0.470686   
C434     C      0.772070000000     0.499750000000     0.957330000000     0.471487   
C435     C      0.771840000000     0.446690000000     0.025090000000     0.471813   
C436     C      0.769450000000     0.065820000000     0.011070000000     0.473333   
C437     C      0.516790000000     0.254890000000     0.563430000000     0.474448   
C438     C      0.520240000000     0.231590000000     0.943550000000     0.471636   
C439     C      0.578700000000     0.247310000000     0.004030000000     0.477361   
C440     C      0.957360000000     0.238500000000     0.003660000000     0.475828   
C441     C      0.764860000000     0.196750000000     0.016210000000     0.471775   
C442     C      0.769140000000     0.316440000000     0.023130000000     0.477732   
C443     C      0.707070000000     0.259890000000     0.521500000000     0.472596   
C444     C      0.828490000000     0.254910000000     0.517660000000     0.472759   
C445     C      0.878760000000     0.271160000000     0.990530000000    -0.00844273 
C446     C      0.880370000000     0.241240000000     0.543160000000    -0.034171   
C447     C      0.905910000000     0.250380000000     0.977490000000    -0.0067463  
C448     C      0.906020000000     0.218700000000     0.529100000000     0.0742069  
C449     C      0.926220000000     0.204370000000     0.556780000000    -0.179619   
C450     C      0.654870000000     0.245450000000     0.545590000000    -0.0100976  
C451     C      0.658010000000     0.285970000000     0.001260000000    -0.035152   
C452     C      0.629150000000     0.227350000000     0.526600000000    -0.00605726 
C453     C      0.630990000000     0.269080000000     0.982820000000     0.0776183  
C454     C      0.612070000000     0.293160000000     0.962260000000    -0.182263   
C455     C      0.802020000000     0.396480000000     0.021710000000    -0.00987917 
C456     C      0.748490000000     0.398570000000     0.549960000000    -0.0355238  
C457     C      0.791860000000     0.366080000000     0.004630000000    -0.00503538 
C458     C      0.739620000000     0.366060000000     0.535430000000     0.0751449  
C459     C      0.718130000000     0.347400000000     0.559110000000    -0.183389   
C460     C      0.774450000000     0.145330000000     0.542250000000    -0.00903277 
C461     C      0.742610000000     0.148530000000     0.490440000000    -0.0359918  
C462     C      0.791510000000     0.116010000000     0.029560000000    -0.00579267 
C463     C      0.755960000000     0.115600000000     0.980510000000     0.0753291  
C464     C      0.730500000000     0.097020000000     0.461200000000    -0.182891   
C465     C      0.794100000000     0.516380000000     0.904720000000    -0.0120943  
C466     C      0.748400000000     0.477390000000     0.907580000000    -0.0356917  
C467     C      0.773400000000     0.038310000000     0.883490000000    -0.00552041 
C468     C      0.727860000000     0.999150000000     0.886310000000     0.097654   
C469     C      0.702000000000     0.480430000000     0.867650000000    -0.183424   
C470     C      0.736940000000     0.023750000000     0.627740000000    -0.00869652 
C471     C      0.787980000000     0.491280000000     0.630520000000    -0.0364196  
C472     C      0.746090000000     0.039800000000     0.659430000000    -0.00776384 
C473     C      0.795000000000     0.505320000000     0.664130000000     0.0762177  
C474     C      0.813730000000     0.481140000000     0.684810000000    -0.18277    
C475     C      0.546840000000     0.243380000000     0.892030000000    -0.00471163 
C476     C      0.498580000000     0.207780000000     0.893860000000    -0.0351361  
C477     C      0.029390000000     0.265880000000     0.869240000000    -0.008006   
C478     C      0.980740000000     0.230420000000     0.870270000000     0.0734747  
C479     C      0.455460000000     0.211670000000     0.850840000000    -0.179969   
C480     C      0.032870000000     0.232260000000     0.645350000000    -0.0102566  
C481     C      0.983090000000     0.266520000000     0.643090000000    -0.0350814  
C482     C      0.545160000000     0.248160000000     0.614640000000    -0.00562336 
C483     C      0.496560000000     0.283550000000     0.612930000000     0.0751461  
C484     C      0.968620000000     0.296600000000     0.592310000000    -0.18229    
C485     C      0.644410000000     0.485700000000     0.754280000000    -0.0105294  
C486     C      0.641310000000     0.036030000000     0.787450000000    -0.0374091  
C487     C      0.613490000000     0.495350000000     0.736850000000    -0.0052254  
C488     C      0.608540000000     0.043570000000     0.771760000000     0.0753148  
C489     C      0.587070000000     0.062360000000     0.795330000000    -0.18328    
C490     C      0.866980000000     0.041760000000     0.759720000000    -0.0121652  
C491     C      0.864930000000     0.495960000000     0.798630000000    -0.0365009  
C492     C      0.889520000000     0.022510000000     0.737590000000    -0.0129115  
C493     C      0.886880000000     0.476670000000     0.776410000000     0.0799802  
C494     C      0.905700000000     0.451230000000     0.795200000000    -0.184911   
C495     C      0.989230000000     0.361960000000     0.782530000000    -0.0097176  
C496     C      0.538120000000     0.362460000000     0.746850000000    -0.0344902  
C497     C      0.979440000000     0.394450000000     0.769380000000    -0.00722679 
C498     C      0.526940000000     0.393800000000     0.731120000000     0.0762481  
C499     C      0.556730000000     0.412660000000     0.719810000000    -0.18432    
C500     C      0.973080000000     0.113600000000     0.738270000000    -0.009138   
C501     C      0.002940000000     0.113380000000     0.791010000000    -0.0358547  
C502     C      0.491070000000     0.143720000000     0.728130000000    -0.00780184 
C503     C      0.524270000000     0.140900000000     0.779340000000     0.0752659  
C504     C      0.537150000000     0.159460000000     0.808820000000    -0.181649   
C505     C      0.994620000000     0.563580000000     0.260920000000     0.470314   
C506     C      0.005550000000     0.943930000000     0.255330000000     0.471273   
C507     C      0.939660000000     0.999010000000     0.257310000000     0.487245   
C508     C      0.560970000000     0.009960000000     0.258480000000     0.471808   
C509     C      0.506210000000     0.692590000000     0.255650000000     0.474796   
C510     C      0.509230000000     0.812580000000     0.258170000000     0.468829   
C511     C      0.008930000000     0.753530000000     0.195250000000     0.468498   
C512     C      0.005500000000     0.749980000000     0.317570000000     0.47167    
C513     C      0.814840000000     0.519280000000     0.277100000000     0.468699   
C514     C      0.693460000000     0.515440000000     0.268430000000     0.466709   
C515     C      0.760120000000     0.017350000000     0.211790000000     0.462713   
C516     C      0.749860000000     0.018520000000     0.333250000000     0.466511   
C517     C      0.767760000000     0.011420000000     0.078680000000     0.468992   
C518     C      0.772070000000     0.999750000000     0.457330000000     0.481547   
C519     C      0.771840000000     0.946690000000     0.525090000000     0.469698   
C520     C      0.769450000000     0.565820000000     0.511070000000     0.474511   
C521     C      0.516790000000     0.754890000000     0.063430000000     0.474669   
C522     C      0.520240000000     0.731600000000     0.443550000000     0.471586   
C523     C      0.578700000000     0.747310000000     0.504030000000     0.477273   
C524     C      0.957360000000     0.738500000000     0.503660000000     0.475862   
C525     C      0.764860000000     0.696750000000     0.516210000000     0.471846   
C526     C      0.769140000000     0.816440000000     0.523130000000     0.477533   
C527     C      0.707070000000     0.759890000000     0.021500000000     0.472474   
C528     C      0.828490000000     0.754910000000     0.017660000000     0.472665   
C529     C      0.878760000000     0.771160000000     0.490530000000    -0.00865375 
C530     C      0.880370000000     0.741240000000     0.043160000000    -0.0342233  
C531     C      0.905910000000     0.750380000000     0.477490000000    -0.00675763 
C532     C      0.906020000000     0.718700000000     0.029100000000     0.074253   
C533     C      0.926220000000     0.704370000000     0.056780000000    -0.179787   
C534     C      0.654870000000     0.745460000000     0.045590000000    -0.0100635  
C535     C      0.658010000000     0.785970000000     0.501260000000    -0.0350669  
C536     C      0.629150000000     0.727350000000     0.026600000000    -0.00613935 
C537     C      0.630990000000     0.769080000000     0.482820000000     0.0775968  
C538     C      0.612070000000     0.793160000000     0.462260000000    -0.182406   
C539     C      0.802020000000     0.896480000000     0.521710000000    -0.010173   
C540     C      0.748490000000     0.898570000000     0.049960000000    -0.0358183  
C541     C      0.791860000000     0.866080000000     0.504630000000    -0.00472716 
C542     C      0.739620000000     0.866060000000     0.035430000000     0.0753548  
C543     C      0.718130000000     0.847400000000     0.059110000000    -0.183592   
C544     C      0.774450000000     0.645330000000     0.042250000000    -0.0090737  
C545     C      0.742610000000     0.648530000000     0.990440000000    -0.0359682  
C546     C      0.791510000000     0.616010000000     0.529560000000    -0.00581771 
C547     C      0.755960000000     0.615600000000     0.480510000000     0.0755517  
C548     C      0.730500000000     0.597020000000     0.961200000000    -0.183262   
C549     C      0.794100000000     0.016380000000     0.404720000000    -0.0190487  
C550     C      0.748400000000     0.977390000000     0.407580000000    -0.0394766  
C551     C      0.773400000000     0.538320000000     0.383490000000    -0.00648079 
C552     C      0.727860000000     0.499150000000     0.386310000000     0.0796036  
C553     C      0.702000000000     0.980430000000     0.367650000000    -0.189529   
C554     C      0.736940000000     0.523750000000     0.127740000000    -0.00949685 
C555     C      0.787980000000     0.991280000000     0.130520000000    -0.0177351  
C556     C      0.746090000000     0.539800000000     0.159430000000    -0.00599549 
C557     C      0.795000000000     0.005320000000     0.164130000000     0.0569356  
C558     C      0.813730000000     0.981140000000     0.184810000000    -0.169744   
C559     C      0.546840000000     0.743380000000     0.392030000000    -0.00471195 
C560     C      0.498580000000     0.707780000000     0.393860000000    -0.0351773  
C561     C      0.029390000000     0.765880000000     0.369240000000    -0.00806578 
C562     C      0.980740000000     0.730420000000     0.370270000000     0.0734785  
C563     C      0.455460000000     0.711670000000     0.350840000000    -0.180014   
C564     C      0.032870000000     0.732260000000     0.145350000000    -0.0102832  
C565     C      0.983090000000     0.766520000000     0.143090000000    -0.0351238  
C566     C      0.545160000000     0.748160000000     0.114640000000    -0.00563331 
C567     C      0.496560000000     0.783550000000     0.112930000000     0.075212   
C568     C      0.968620000000     0.796600000000     0.092310000000    -0.182433   
C569     C      0.644410000000     0.985700000000     0.254280000000    -0.0082887  
C570     C      0.641310000000     0.536040000000     0.287450000000    -0.0365176  
C571     C      0.613490000000     0.995350000000     0.236850000000     0.0127355  
C572     C      0.608540000000     0.543570000000     0.271760000000     0.075574   
C573     C      0.587070000000     0.562360000000     0.295330000000    -0.18346    
C574     C      0.866980000000     0.541760000000     0.259720000000    -0.0129884  
C575     C      0.864930000000     0.995970000000     0.298630000000    -0.0181227  
C576     C      0.889520000000     0.522510000000     0.237590000000    -0.00593863 
C577     C      0.886880000000     0.976670000000     0.276410000000     0.0768092  
C578     C      0.905700000000     0.951240000000     0.295200000000    -0.183609   
C579     C      0.989230000000     0.861960000000     0.282530000000    -0.00970974 
C580     C      0.538120000000     0.862460000000     0.246850000000    -0.0346305  
C581     C      0.979440000000     0.894450000000     0.269380000000    -0.00732238 
C582     C      0.526940000000     0.893800000000     0.231120000000     0.0766056  
C583     C      0.556730000000     0.912660000000     0.219810000000    -0.184936   
C584     C      0.973080000000     0.613600000000     0.238270000000    -0.00907397 
C585     C      0.002940000000     0.613380000000     0.291010000000    -0.0358288  
C586     C      0.491070000000     0.643720000000     0.228130000000    -0.00785185 
C587     C      0.524270000000     0.640900000000     0.279340000000     0.0752815  
C588     C      0.537150000000     0.659460000000     0.308820000000    -0.181782   
C589     C      0.994620000000     0.563580000000     0.760920000000     0.470314   
C590     C      0.005550000000     0.943930000000     0.755330000000     0.471273   
C591     C      0.939660000000     0.999010000000     0.757310000000     0.487244   
C592     C      0.560970000000     0.009960000000     0.758480000000     0.471807   
C593     C      0.506210000000     0.692590000000     0.755650000000     0.474796   
C594     C      0.509230000000     0.812580000000     0.758170000000     0.468829   
C595     C      0.008930000000     0.753530000000     0.695250000000     0.468498   
C596     C      0.005500000000     0.749980000000     0.817570000000     0.471669   
C597     C      0.814840000000     0.519280000000     0.777100000000     0.468699   
C598     C      0.693460000000     0.515440000000     0.768430000000     0.466709   
C599     C      0.760120000000     0.017350000000     0.711790000000     0.462713   
C600     C      0.749860000000     0.018520000000     0.833250000000     0.466512   
C601     C      0.767760000000     0.011420000000     0.578680000000     0.468998   
C602     C      0.772070000000     0.999750000000     0.957330000000     0.481533   
C603     C      0.771840000000     0.946690000000     0.025090000000     0.469686   
C604     C      0.769450000000     0.565820000000     0.011070000000     0.474495   
C605     C      0.516790000000     0.754890000000     0.563430000000     0.47466    
C606     C      0.520240000000     0.731600000000     0.943550000000     0.471588   
C607     C      0.578700000000     0.747310000000     0.004030000000     0.477275   
C608     C      0.957360000000     0.738500000000     0.003660000000     0.475763   
C609     C      0.764860000000     0.696750000000     0.016210000000     0.471756   
C610     C      0.769140000000     0.816440000000     0.023130000000     0.477737   
C611     C      0.707070000000     0.759890000000     0.521500000000     0.472575   
C612     C      0.828490000000     0.754910000000     0.517660000000     0.472756   
C613     C      0.878760000000     0.771160000000     0.990530000000    -0.00850153 
C614     C      0.880370000000     0.741240000000     0.543160000000    -0.0342205  
C615     C      0.905910000000     0.750380000000     0.977490000000    -0.0067368  
C616     C      0.906020000000     0.718700000000     0.529100000000     0.0742611  
C617     C      0.926220000000     0.704370000000     0.556780000000    -0.17979    
C618     C      0.654870000000     0.745460000000     0.545590000000    -0.0100439  
C619     C      0.658010000000     0.785970000000     0.001260000000    -0.0352694  
C620     C      0.629150000000     0.727350000000     0.526600000000    -0.0061607  
C621     C      0.630990000000     0.769080000000     0.982820000000     0.0777673  
C622     C      0.612070000000     0.793160000000     0.962260000000    -0.18246    
C623     C      0.802020000000     0.896480000000     0.021710000000    -0.0101163  
C624     C      0.748490000000     0.898570000000     0.549960000000    -0.0358184  
C625     C      0.791860000000     0.866080000000     0.004630000000    -0.0049296  
C626     C      0.739620000000     0.866060000000     0.535430000000     0.0753547  
C627     C      0.718130000000     0.847400000000     0.559110000000    -0.183591   
C628     C      0.774450000000     0.645330000000     0.542250000000    -0.00905729 
C629     C      0.742610000000     0.648530000000     0.490440000000    -0.036115   
C630     C      0.791510000000     0.616010000000     0.029560000000    -0.00579022 
C631     C      0.755960000000     0.615600000000     0.980510000000     0.0755858  
C632     C      0.730500000000     0.597020000000     0.461200000000    -0.183258   
C633     C      0.794100000000     0.016380000000     0.904720000000    -0.0190496  
C634     C      0.748400000000     0.977390000000     0.907580000000    -0.0394781  
C635     C      0.773400000000     0.538320000000     0.883490000000    -0.00648013 
C636     C      0.727860000000     0.499150000000     0.886310000000     0.0796048  
C637     C      0.702000000000     0.980430000000     0.867650000000    -0.18953    
C638     C      0.736940000000     0.523750000000     0.627740000000    -0.00949709 
C639     C      0.787980000000     0.991280000000     0.630520000000    -0.0177354  
C640     C      0.746090000000     0.539800000000     0.659430000000    -0.00599566 
C641     C      0.795000000000     0.005320000000     0.664130000000     0.0569356  
C642     C      0.813730000000     0.981140000000     0.684810000000    -0.169744   
C643     C      0.546840000000     0.743380000000     0.892030000000    -0.00471076 
C644     C      0.498580000000     0.707780000000     0.893860000000    -0.0351791  
C645     C      0.029390000000     0.765880000000     0.869240000000    -0.00806652 
C646     C      0.980740000000     0.730420000000     0.870270000000     0.0734796  
C647     C      0.455460000000     0.711670000000     0.850840000000    -0.180016   
C648     C      0.032870000000     0.732260000000     0.645350000000    -0.0102836  
C649     C      0.983090000000     0.766520000000     0.643090000000    -0.0351244  
C650     C      0.545160000000     0.748160000000     0.614640000000    -0.00563331 
C651     C      0.496560000000     0.783550000000     0.612930000000     0.0752128  
C652     C      0.968620000000     0.796600000000     0.592310000000    -0.182437   
C653     C      0.644410000000     0.985700000000     0.754280000000    -0.00828913 
C654     C      0.641310000000     0.536040000000     0.787450000000    -0.0365185  
C655     C      0.613490000000     0.995350000000     0.736850000000     0.0127348  
C656     C      0.608540000000     0.543570000000     0.771760000000     0.0755747  
C657     C      0.587070000000     0.562360000000     0.795330000000    -0.183462   
C658     C      0.866980000000     0.541760000000     0.759720000000    -0.0129887  
C659     C      0.864930000000     0.995970000000     0.798630000000    -0.0181246  
C660     C      0.889520000000     0.522510000000     0.737590000000    -0.00593883 
C661     C      0.886880000000     0.976670000000     0.776410000000     0.0768102  
C662     C      0.905700000000     0.951240000000     0.795200000000    -0.183611   
C663     C      0.989230000000     0.861960000000     0.782530000000    -0.00971022 
C664     C      0.538120000000     0.862460000000     0.746850000000    -0.0346308  
C665     C      0.979440000000     0.894450000000     0.769380000000    -0.00732247 
C666     C      0.526940000000     0.893800000000     0.731120000000     0.0766057  
C667     C      0.556730000000     0.912660000000     0.719810000000    -0.184936   
C668     C      0.973080000000     0.613600000000     0.738270000000    -0.00907435 
C669     C      0.002940000000     0.613380000000     0.791010000000    -0.0358298  
C670     C      0.491070000000     0.643720000000     0.728130000000    -0.0078521  
C671     C      0.524270000000     0.640900000000     0.779340000000     0.0752821  
C672     C      0.537150000000     0.659460000000     0.808820000000    -0.181783   
H1       H      0.442310000000     0.222450000000     0.067740000000     0.0652756  
H2       H      0.392590000000     0.260820000000     0.556420000000     0.0393153  
H3       H      0.389680000000     0.293170000000     0.500510000000     0.033308   
H4       H      0.421170000000     0.264520000000     0.460710000000     0.0338099  
H5       H      0.364950000000     0.228010000000     0.060570000000     0.0412057  
H6       H      0.410220000000     0.194980000000     0.076060000000     0.0548312  
H7       H      0.392940000000     0.198850000000     0.017120000000     0.0175795  
H8       H      0.362680000000     0.278310000000     0.470310000000     0.0355783  
H9       H      0.394850000000     0.230910000000     0.963130000000     0.0327144  
H10      H      0.440530000000     0.183890000000     0.047960000000     0.071803   
H11      H      0.100970000000     0.311790000000     0.477650000000     0.0707195  
H12      H      0.147170000000     0.304990000000     0.016430000000     0.0374564  
H13      H      0.142740000000     0.262130000000     0.062500000000     0.0339827  
H14      H      0.112980000000     0.215140000000     0.044090000000     0.0329668  
H15      H      0.174850000000     0.297610000000     0.484010000000     0.0408664  
H16      H      0.128530000000     0.305040000000     0.444900000000     0.0546728  
H17      H      0.142940000000     0.252550000000     0.465580000000     0.0163788  
H18      H      0.169420000000     0.228310000000     0.059920000000     0.0347778  
H19      H      0.141160000000     0.208950000000     0.511550000000     0.0349345  
H20      H      0.093290000000     0.280980000000     0.447880000000     0.0688702  
H21      H      0.231780000000     0.340800000000     0.081190000000     0.0721983  
H22      H      0.258500000000     0.394810000000     0.074610000000     0.0389947  
H23      H      0.315480000000     0.390140000000     0.044030000000     0.0355093  
H24      H      0.313660000000     0.351550000000     0.499420000000     0.0294191  
H25      H      0.226360000000     0.413180000000     0.052670000000     0.0436464  
H26      H      0.197140000000     0.362070000000     0.066420000000     0.0562474  
H27      H      0.224850000000     0.370890000000     0.513520000000     0.0147502  
H28      H      0.318430000000     0.409920000000     0.505470000000     0.0372114  
H29      H      0.280280000000     0.372300000000     0.481230000000     0.0365166  
H30      H      0.208490000000     0.325690000000     0.047390000000     0.0686246  
H31      H      0.209380000000     0.091340000000     0.976600000000     0.0721357  
H32      H      0.218210000000     0.145330000000     0.001020000000     0.0387653  
H33      H      0.253680000000     0.137840000000     0.057390000000     0.0367577  
H34      H      0.299850000000     0.101660000000     0.550560000000     0.0338636  
H35      H      0.239690000000     0.163530000000     0.968500000000     0.0433993  
H36      H      0.222080000000     0.111420000000     0.940340000000     0.0562829  
H37      H      0.276280000000     0.120270000000     0.463630000000     0.0142445  
H38      H      0.291570000000     0.158750000000     0.557790000000     0.0363066  
H39      H      0.312970000000     0.123460000000     0.515370000000     0.0359087  
H40      H      0.240910000000     0.074800000000     0.451280000000     0.0691164  
H41      H      0.212650000000     0.460290000000     0.354040000000     0.0724022  
H42      H      0.260960000000     0.460000000000     0.391760000000     0.0412665  
H43      H      0.308710000000     0.500870000000     0.388660000000     0.0351192  
H44      H      0.289420000000     0.051690000000     0.366770000000     0.0337861  
H45      H      0.232900000000     0.463790000000     0.424600000000     0.0425493  
H46      H      0.184260000000     0.470410000000     0.384950000000     0.0558398  
H47      H      0.214720000000     0.015290000000     0.403070000000     0.00577343 
H48      H      0.310710000000     0.031050000000     0.419600000000     0.0360156  
H49      H      0.260890000000     0.055680000000     0.399320000000     0.0295858  
H50      H      0.188780000000     0.996330000000     0.350840000000     0.0718519  
H51      H      0.299040000000     0.459570000000     0.189370000000     0.072445   
H52      H      0.276430000000     0.467630000000     0.133580000000     0.0395384  
H53      H      0.220290000000     0.503720000000     0.132960000000     0.0364662  
H54      H      0.223690000000     0.047400000000     0.172020000000     0.0334785  
H55      H      0.311110000000     0.487310000000     0.117590000000     0.0442821  
H56      H      0.336060000000     0.473810000000     0.172060000000     0.0569983  
H57      H      0.311400000000     0.025870000000     0.160210000000     0.0164344  
H58      H      0.224000000000     0.041240000000     0.112320000000     0.0355026  
H59      H      0.260650000000     0.061330000000     0.154040000000     0.0357068  
H60      H      0.321150000000     0.491900000000     0.208120000000     0.0706843  
H61      H      0.967000000000     0.195660000000     0.332970000000     0.0673808  
H62      H      0.010450000000     0.188660000000     0.379650000000     0.0372939  
H63      H      0.060980000000     0.226340000000     0.377190000000     0.0320544  
H64      H      0.547240000000     0.278250000000     0.353680000000     0.0356435  
H65      H      0.981110000000     0.196640000000     0.410840000000     0.0371732  
H66      H      0.940620000000     0.196910000000     0.367370000000     0.0552624  
H67      H      0.467430000000     0.247780000000     0.385540000000     0.0171357  
H68      H      0.563900000000     0.256920000000     0.407380000000     0.0266741  
H69      H      0.517230000000     0.284350000000     0.384080000000     0.0364763  
H70      H      0.438590000000     0.228130000000     0.338530000000     0.0716665  
H71      H      0.455250000000     0.277080000000     0.080280000000     0.0641832  
H72      H      0.466680000000     0.247110000000     0.135230000000     0.0400211  
H73      H      0.520680000000     0.209780000000     0.138360000000     0.0342873  
H74      H      0.059820000000     0.230920000000     0.100540000000     0.0330311  
H75      H      0.468850000000     0.283710000000     0.157700000000     0.0425243  
H76      H      0.451470000000     0.310020000000     0.107740000000     0.056224   
H77      H      0.010940000000     0.304140000000     0.121650000000     0.0166932  
H78      H      0.053720000000     0.225830000000     0.160870000000     0.0373975  
H79      H      0.061420000000     0.267900000000     0.121890000000     0.0319331  
H80      H      0.977710000000     0.313560000000     0.073950000000     0.0730029  
H81      H      0.080960000000     0.047830000000     0.316870000000     0.070044   
H82      H      0.137030000000     0.024710000000     0.311370000000     0.035347   
H83      H      0.138200000000     0.469180000000     0.274300000000     0.0350337  
H84      H      0.100680000000     0.473630000000     0.228530000000     0.0263986  
H85      H      0.154440000000     0.058610000000     0.292050000000     0.0432076  
H86      H      0.099770000000     0.084100000000     0.303610000000     0.0551833  
H87      H      0.113600000000     0.059580000000     0.250960000000     0.0153798  
H88      H      0.160150000000     0.472810000000     0.236930000000     0.0354528  
H89      H      0.119880000000     0.509740000000     0.215230000000     0.0350743  
H90      H      0.064680000000     0.070120000000     0.283050000000     0.0677497  
H91      H      0.419590000000     0.461720000000     0.315470000000     0.0722189  
H92      H      0.380140000000     0.508470000000     0.316730000000     0.0420929  
H93      H      0.382000000000     0.056660000000     0.275990000000     0.0349427  
H94      H      0.406210000000     0.039110000000     0.225040000000     0.0322211  
H95      H      0.348290000000     0.479980000000     0.312040000000     0.0427055  
H96      H      0.388690000000     0.433620000000     0.305550000000     0.055968   
H97      H      0.370750000000     0.463700000000     0.259440000000     0.0155401  
H98      H      0.351810000000     0.057690000000     0.244630000000     0.0351711  
H99      H      0.374800000000     0.010280000000     0.218970000000     0.0284876  
H100     H      0.422070000000     0.438390000000     0.278560000000     0.064926   
H101     H      0.069970000000     0.422510000000     0.240880000000     0.0640599  
H102     H      0.055110000000     0.367880000000     0.266910000000     0.0418803  
H103     H      0.502440000000     0.365710000000     0.305600000000     0.0326711  
H104     H      0.468590000000     0.408390000000     0.289440000000     0.0300329  
H105     H      0.051190000000     0.348010000000     0.228530000000     0.0419602  
H106     H      0.073330000000     0.397070000000     0.205970000000     0.0562167  
H107     H      0.012280000000     0.387680000000     0.209490000000     0.0183397  
H108     H      0.467210000000     0.348080000000     0.288360000000     0.0359954  
H109     H      0.460370000000     0.390810000000     0.250890000000     0.0303346  
H110     H      0.049810000000     0.432230000000     0.203290000000     0.0726372  
H111     H      0.517890000000     0.174010000000     0.319970000000     0.0639844  
H112     H      0.481990000000     0.123210000000     0.304460000000     0.0405161  
H113     H      0.449690000000     0.120920000000     0.248990000000     0.0322636  
H114     H      0.474500000000     0.159400000000     0.214270000000     0.0334135  
H115     H      0.016890000000     0.097950000000     0.307760000000     0.0393028  
H116     H      0.046600000000     0.142870000000     0.327420000000     0.0545515  
H117     H      0.045260000000     0.130370000000     0.266510000000     0.0163228  
H118     H      0.467630000000     0.099030000000     0.216540000000     0.0350746  
H119     H      0.010750000000     0.136620000000     0.211420000000     0.0323397  
H120     H      0.057630000000     0.174890000000     0.301840000000     0.0727411  
H121     H      0.442310000000     0.222450000000     0.567740000000     0.0652761  
H122     H      0.392590000000     0.260820000000     0.056420000000     0.0393108  
H123     H      0.389680000000     0.293170000000     0.000510000000     0.0332186  
H124     H      0.421170000000     0.264520000000     0.960710000000     0.03382    
H125     H      0.364950000000     0.228010000000     0.560570000000     0.0412061  
H126     H      0.410220000000     0.194980000000     0.576060000000     0.0548332  
H127     H      0.392940000000     0.198850000000     0.517120000000     0.0175959  
H128     H      0.362680000000     0.278310000000     0.970310000000     0.0355588  
H129     H      0.394850000000     0.230910000000     0.463130000000     0.0326997  
H130     H      0.440530000000     0.183890000000     0.547960000000     0.0718085  
H131     H      0.100970000000     0.311790000000     0.977650000000     0.0707597  
H132     H      0.147170000000     0.304990000000     0.516430000000     0.0374341  
H133     H      0.142740000000     0.262130000000     0.562500000000     0.0339793  
H134     H      0.112980000000     0.215140000000     0.544090000000     0.0329736  
H135     H      0.174850000000     0.297610000000     0.984010000000     0.0409589  
H136     H      0.128530000000     0.305040000000     0.944900000000     0.0546919  
H137     H      0.142940000000     0.252550000000     0.965580000000     0.0163613  
H138     H      0.169420000000     0.228310000000     0.559920000000     0.0347748  
H139     H      0.141160000000     0.208950000000     0.011540000000     0.0349101  
H140     H      0.093290000000     0.280980000000     0.947880000000     0.0688938  
H141     H      0.231780000000     0.340800000000     0.581190000000     0.0722041  
H142     H      0.258500000000     0.394810000000     0.574610000000     0.0389949  
H143     H      0.315480000000     0.390140000000     0.544030000000     0.0355292  
H144     H      0.313660000000     0.351550000000     0.999420000000     0.0295209  
H145     H      0.226360000000     0.413180000000     0.552670000000     0.0436515  
H146     H      0.197140000000     0.362070000000     0.566420000000     0.056253   
H147     H      0.224850000000     0.370890000000     0.013520000000     0.0147269  
H148     H      0.318430000000     0.409920000000     0.005470000000     0.0371737  
H149     H      0.280280000000     0.372300000000     0.981230000000     0.0366137  
H150     H      0.208490000000     0.325690000000     0.547390000000     0.0686326  
H151     H      0.209380000000     0.091340000000     0.476600000000     0.0721038  
H152     H      0.218210000000     0.145330000000     0.501020000000     0.0388506  
H153     H      0.253680000000     0.137840000000     0.557390000000     0.0367582  
H154     H      0.299850000000     0.101660000000     0.050570000000     0.0338457  
H155     H      0.239690000000     0.163530000000     0.468500000000     0.0434163  
H156     H      0.222080000000     0.111420000000     0.440340000000     0.0562757  
H157     H      0.276280000000     0.120270000000     0.963630000000     0.0142547  
H158     H      0.291570000000     0.158750000000     0.057790000000     0.0363087  
H159     H      0.312970000000     0.123460000000     0.015370000000     0.0358832  
H160     H      0.240910000000     0.074800000000     0.951280000000     0.0691323  
H161     H      0.212650000000     0.460290000000     0.854040000000     0.0724038  
H162     H      0.260960000000     0.460000000000     0.891760000000     0.0412706  
H163     H      0.308710000000     0.500870000000     0.888660000000     0.0351235  
H164     H      0.289420000000     0.051690000000     0.866770000000     0.0337879  
H165     H      0.232900000000     0.463790000000     0.924600000000     0.0425597  
H166     H      0.184260000000     0.470410000000     0.884950000000     0.0558466  
H167     H      0.214720000000     0.015290000000     0.903070000000     0.0057792  
H168     H      0.310710000000     0.031050000000     0.919600000000     0.0360255  
H169     H      0.260890000000     0.055680000000     0.899320000000     0.029589   
H170     H      0.188780000000     0.996330000000     0.850840000000     0.0718537  
H171     H      0.299040000000     0.459570000000     0.689370000000     0.0724449  
H172     H      0.276430000000     0.467630000000     0.633580000000     0.0395384  
H173     H      0.220290000000     0.503720000000     0.632960000000     0.0364673  
H174     H      0.223690000000     0.047400000000     0.672020000000     0.0334786  
H175     H      0.311110000000     0.487310000000     0.617590000000     0.0442833  
H176     H      0.336060000000     0.473810000000     0.672060000000     0.0569991  
H177     H      0.311400000000     0.025870000000     0.660210000000     0.0164347  
H178     H      0.224000000000     0.041240000000     0.612320000000     0.0355046  
H179     H      0.260650000000     0.061330000000     0.654040000000     0.0357067  
H180     H      0.321150000000     0.491900000000     0.708120000000     0.0706842  
H181     H      0.967000000000     0.195660000000     0.832970000000     0.0673817  
H182     H      0.010450000000     0.188660000000     0.879650000000     0.0372981  
H183     H      0.060980000000     0.226340000000     0.877190000000     0.0320569  
H184     H      0.547240000000     0.278250000000     0.853680000000     0.0356443  
H185     H      0.981110000000     0.196640000000     0.910840000000     0.0371823  
H186     H      0.940620000000     0.196910000000     0.867370000000     0.0552668  
H187     H      0.467430000000     0.247780000000     0.885540000000     0.0171376  
H188     H      0.563900000000     0.256920000000     0.907380000000     0.026678   
H189     H      0.517230000000     0.284350000000     0.884080000000     0.0364783  
H190     H      0.438590000000     0.228130000000     0.838530000000     0.0716675  
H191     H      0.455250000000     0.277080000000     0.580280000000     0.0641883  
H192     H      0.466680000000     0.247110000000     0.635230000000     0.040021   
H193     H      0.520680000000     0.209780000000     0.638360000000     0.0342875  
H194     H      0.059820000000     0.230920000000     0.600540000000     0.0330319  
H195     H      0.468850000000     0.283710000000     0.657700000000     0.0425245  
H196     H      0.451470000000     0.310020000000     0.607740000000     0.0562282  
H197     H      0.010940000000     0.304140000000     0.621650000000     0.0166951  
H198     H      0.053720000000     0.225830000000     0.660870000000     0.0373974  
H199     H      0.061420000000     0.267900000000     0.621890000000     0.0319343  
H200     H      0.977710000000     0.313560000000     0.573950000000     0.073015   
H201     H      0.080960000000     0.047830000000     0.816870000000     0.0700474  
H202     H      0.137030000000     0.024710000000     0.811370000000     0.035349   
H203     H      0.138200000000     0.469180000000     0.774300000000     0.0350343  
H204     H      0.100680000000     0.473630000000     0.728530000000     0.026399   
H205     H      0.154440000000     0.058610000000     0.792050000000     0.0432083  
H206     H      0.099770000000     0.084100000000     0.803610000000     0.0551851  
H207     H      0.113600000000     0.059580000000     0.750960000000     0.0153795  
H208     H      0.160150000000     0.472810000000     0.736930000000     0.0354528  
H209     H      0.119880000000     0.509740000000     0.715230000000     0.035075   
H210     H      0.064680000000     0.070120000000     0.783050000000     0.0677503  
H211     H      0.419590000000     0.461720000000     0.815470000000     0.0722219  
H212     H      0.380140000000     0.508470000000     0.816730000000     0.0420956  
H213     H      0.382000000000     0.056660000000     0.775990000000     0.0349434  
H214     H      0.406210000000     0.039110000000     0.725040000000     0.0322214  
H215     H      0.348290000000     0.479980000000     0.812040000000     0.0427071  
H216     H      0.388690000000     0.433620000000     0.805550000000     0.0559699  
H217     H      0.370750000000     0.463700000000     0.759440000000     0.0155397  
H218     H      0.351810000000     0.057690000000     0.744630000000     0.035171   
H219     H      0.374800000000     0.010280000000     0.718970000000     0.0284877  
H220     H      0.422070000000     0.438390000000     0.778560000000     0.0649266  
H221     H      0.069970000000     0.422510000000     0.740880000000     0.0640602  
H222     H      0.055110000000     0.367880000000     0.766910000000     0.0418806  
H223     H      0.502440000000     0.365710000000     0.805600000000     0.0326727  
H224     H      0.468590000000     0.408390000000     0.789440000000     0.030034   
H225     H      0.051190000000     0.348010000000     0.728530000000     0.0419603  
H226     H      0.073330000000     0.397070000000     0.705970000000     0.0562177  
H227     H      0.012280000000     0.387680000000     0.709490000000     0.0183405  
H228     H      0.467210000000     0.348080000000     0.788360000000     0.035996   
H229     H      0.460370000000     0.390810000000     0.750890000000     0.0303346  
H230     H      0.049810000000     0.432230000000     0.703290000000     0.0726386  
H231     H      0.517890000000     0.174010000000     0.819970000000     0.0639854  
H232     H      0.481990000000     0.123210000000     0.804460000000     0.040518   
H233     H      0.449690000000     0.120920000000     0.748990000000     0.0322637  
H234     H      0.474500000000     0.159400000000     0.714270000000     0.0334134  
H235     H      0.016890000000     0.097950000000     0.807760000000     0.0393051  
H236     H      0.046600000000     0.142870000000     0.827420000000     0.0545546  
H237     H      0.045260000000     0.130370000000     0.766510000000     0.0163225  
H238     H      0.467630000000     0.099030000000     0.716540000000     0.035075   
H239     H      0.010750000000     0.136620000000     0.711420000000     0.0323399  
H240     H      0.057630000000     0.174890000000     0.801840000000     0.0727418  
H241     H      0.442310000000     0.722440000000     0.067740000000     0.0653668  
H242     H      0.392590000000     0.760820000000     0.556420000000     0.039397   
H243     H      0.389680000000     0.793170000000     0.500510000000     0.0335557  
H244     H      0.421170000000     0.764520000000     0.460710000000     0.0339331  
H245     H      0.364950000000     0.728010000000     0.060570000000     0.0412399  
H246     H      0.410220000000     0.694980000000     0.076060000000     0.0549909  
H247     H      0.392940000000     0.698850000000     0.017120000000     0.0176701  
H248     H      0.362680000000     0.778310000000     0.470310000000     0.0356988  
H249     H      0.394850000000     0.730910000000     0.963130000000     0.0327583  
H250     H      0.440530000000     0.683890000000     0.047960000000     0.0720699  
H251     H      0.100970000000     0.811790000000     0.477650000000     0.0711415  
H252     H      0.147170000000     0.804990000000     0.016430000000     0.0377112  
H253     H      0.142740000000     0.762130000000     0.062500000000     0.0340527  
H254     H      0.112980000000     0.715140000000     0.044090000000     0.0330852  
H255     H      0.174850000000     0.797610000000     0.484010000000     0.0409991  
H256     H      0.128530000000     0.805040000000     0.444900000000     0.0549538  
H257     H      0.142940000000     0.752550000000     0.465580000000     0.0163534  
H258     H      0.169420000000     0.728310000000     0.059920000000     0.0347897  
H259     H      0.141160000000     0.708950000000     0.511550000000     0.0350383  
H260     H      0.093290000000     0.780980000000     0.447880000000     0.0690188  
H261     H      0.231780000000     0.840800000000     0.081190000000     0.0724397  
H262     H      0.258500000000     0.894810000000     0.074610000000     0.0397041  
H263     H      0.315480000000     0.890150000000     0.044030000000     0.0361729  
H264     H      0.313660000000     0.851550000000     0.499420000000     0.0296517  
H265     H      0.226360000000     0.913180000000     0.052670000000     0.0447736  
H266     H      0.197140000000     0.862070000000     0.066420000000     0.0568639  
H267     H      0.224850000000     0.870890000000     0.513520000000     0.0150197  
H268     H      0.318430000000     0.909920000000     0.505470000000     0.0381979  
H269     H      0.280280000000     0.872300000000     0.481230000000     0.036779   
H270     H      0.208490000000     0.825690000000     0.047390000000     0.0687657  
H271     H      0.209380000000     0.591340000000     0.976600000000     0.0727555  
H272     H      0.218210000000     0.645330000000     0.001020000000     0.0388928  
H273     H      0.253680000000     0.637840000000     0.057390000000     0.0368132  
H274     H      0.299850000000     0.601660000000     0.550560000000     0.0340627  
H275     H      0.239690000000     0.663530000000     0.968500000000     0.0434411  
H276     H      0.222080000000     0.611420000000     0.940340000000     0.0565896  
H277     H      0.276280000000     0.620270000000     0.463630000000     0.0142823  
H278     H      0.291570000000     0.658750000000     0.557790000000     0.0363595  
H279     H      0.312970000000     0.623460000000     0.515370000000     0.0361046  
H280     H      0.240910000000     0.574800000000     0.451280000000     0.0700063  
H281     H      0.212650000000     0.960290000000     0.354040000000     0.074177   
H282     H      0.260960000000     0.960000000000     0.391760000000     0.0433544  
H283     H      0.308710000000     0.000870000000     0.388660000000     0.0333043  
H284     H      0.289420000000     0.551690000000     0.366770000000     0.0342629  
H285     H      0.232900000000     0.963790000000     0.424600000000     0.0442661  
H286     H      0.184260000000     0.970410000000     0.384950000000     0.0590902  
H287     H      0.214720000000     0.515290000000     0.403070000000     0.0159999  
H288     H      0.310710000000     0.531050000000     0.419600000000     0.0358167  
H289     H      0.260890000000     0.555680000000     0.399320000000     0.030606   
H290     H      0.188780000000     0.496330000000     0.350840000000     0.0667723  
H291     H      0.299040000000     0.959570000000     0.189370000000     0.0706765  
H292     H      0.276430000000     0.967630000000     0.133580000000     0.0379956  
H293     H      0.220290000000     0.003720000000     0.132960000000     0.0336905  
H294     H      0.223690000000     0.547400000000     0.172020000000     0.0335945  
H295     H      0.311110000000     0.987310000000     0.117590000000     0.0437948  
H296     H      0.336060000000     0.973810000000     0.172060000000     0.0564506  
H297     H      0.311400000000     0.525870000000     0.160210000000     0.0143045  
H298     H      0.224000000000     0.541240000000     0.112320000000     0.0361276  
H299     H      0.260650000000     0.561330000000     0.154040000000     0.0353713  
H300     H      0.321150000000     0.991900000000     0.208120000000     0.0715606  
H301     H      0.967000000000     0.695660000000     0.332970000000     0.0674223  
H302     H      0.010450000000     0.688660000000     0.379650000000     0.0374234  
H303     H      0.060980000000     0.726340000000     0.377190000000     0.0320876  
H304     H      0.547240000000     0.778250000000     0.353680000000     0.035767   
H305     H      0.981110000000     0.696640000000     0.410840000000     0.0373226  
H306     H      0.940620000000     0.696910000000     0.367370000000     0.0553691  
H307     H      0.467430000000     0.747780000000     0.385540000000     0.0171978  
H308     H      0.563900000000     0.756920000000     0.407380000000     0.0267391  
H309     H      0.517230000000     0.784350000000     0.384080000000     0.0366881  
H310     H      0.438590000000     0.728130000000     0.338530000000     0.0716976  
H311     H      0.455250000000     0.777080000000     0.080280000000     0.0642709  
H312     H      0.466680000000     0.747110000000     0.135230000000     0.0400473  
H313     H      0.520680000000     0.709780000000     0.138360000000     0.0343795  
H314     H      0.059820000000     0.730920000000     0.100540000000     0.033099   
H315     H      0.468850000000     0.783710000000     0.157700000000     0.0426298  
H316     H      0.451470000000     0.810020000000     0.107740000000     0.0565667  
H317     H      0.010940000000     0.804140000000     0.121650000000     0.0169393  
H318     H      0.053720000000     0.725830000000     0.160870000000     0.0374417  
H319     H      0.061420000000     0.767900000000     0.121890000000     0.0320471  
H320     H      0.977710000000     0.813560000000     0.073950000000     0.0734429  
H321     H      0.080960000000     0.547830000000     0.316870000000     0.0709419  
H322     H      0.137030000000     0.524710000000     0.311370000000     0.0375215  
H323     H      0.138200000000     0.969170000000     0.274300000000     0.0365152  
H324     H      0.100680000000     0.973630000000     0.228530000000     0.0249798  
H325     H      0.154440000000     0.558610000000     0.292050000000     0.043279   
H326     H      0.099770000000     0.584100000000     0.303610000000     0.0554293  
H327     H      0.113600000000     0.559580000000     0.250960000000     0.0156804  
H328     H      0.160150000000     0.972810000000     0.236930000000     0.0371512  
H329     H      0.119880000000     0.009740000000     0.215230000000     0.0257518  
H330     H      0.064680000000     0.570120000000     0.283050000000     0.0676714  
H331     H      0.419590000000     0.961720000000     0.315470000000     0.0737556  
H332     H      0.380140000000     0.008470000000     0.316730000000     0.0318815  
H333     H      0.382000000000     0.556660000000     0.275990000000     0.0360725  
H334     H      0.406210000000     0.539110000000     0.225040000000     0.0319483  
H335     H      0.348290000000     0.979980000000     0.312040000000     0.0410078  
H336     H      0.388690000000     0.933620000000     0.305550000000     0.0562253  
H337     H      0.370750000000     0.963700000000     0.259440000000     0.0175046  
H338     H      0.351810000000     0.557690000000     0.244630000000     0.0355695  
H339     H      0.374800000000     0.510280000000     0.218970000000     0.0303836  
H340     H      0.422070000000     0.938390000000     0.278560000000     0.065019   
H341     H      0.069970000000     0.922510000000     0.240880000000     0.0652236  
H342     H      0.055110000000     0.867880000000     0.266910000000     0.0422097  
H343     H      0.502440000000     0.865710000000     0.305600000000     0.0330835  
H344     H      0.468590000000     0.908390000000     0.289440000000     0.0305454  
H345     H      0.051190000000     0.848010000000     0.228530000000     0.0421318  
H346     H      0.073330000000     0.897070000000     0.205970000000     0.056974   
H347     H      0.012280000000     0.887680000000     0.209490000000     0.0187193  
H348     H      0.467210000000     0.848080000000     0.288360000000     0.0361515  
H349     H      0.460370000000     0.890810000000     0.250890000000     0.0307311  
H350     H      0.049810000000     0.932230000000     0.203290000000     0.0743911  
H351     H      0.517890000000     0.674000000000     0.319970000000     0.0640654  
H352     H      0.481990000000     0.623210000000     0.304460000000     0.0407358  
H353     H      0.449690000000     0.620920000000     0.248990000000     0.0324155  
H354     H      0.474500000000     0.659400000000     0.214270000000     0.0334916  
H355     H      0.016890000000     0.597950000000     0.307760000000     0.0395489  
H356     H      0.046600000000     0.642870000000     0.327420000000     0.0547438  
H357     H      0.045260000000     0.630360000000     0.266510000000     0.0163302  
H358     H      0.467630000000     0.599030000000     0.216540000000     0.0353995  
H359     H      0.010750000000     0.636620000000     0.211420000000     0.0324932  
H360     H      0.057630000000     0.674890000000     0.301840000000     0.0727822  
H361     H      0.442310000000     0.722440000000     0.567740000000     0.0653673  
H362     H      0.392590000000     0.760820000000     0.056420000000     0.0393926  
H363     H      0.389680000000     0.793170000000     0.000510000000     0.0334667  
H364     H      0.421170000000     0.764520000000     0.960710000000     0.0339431  
H365     H      0.364950000000     0.728010000000     0.560570000000     0.0412403  
H366     H      0.410220000000     0.694980000000     0.576060000000     0.0549929  
H367     H      0.392940000000     0.698850000000     0.517120000000     0.0176865  
H368     H      0.362680000000     0.778310000000     0.970310000000     0.0356794  
H369     H      0.394850000000     0.730910000000     0.463130000000     0.0327437  
H370     H      0.440530000000     0.683890000000     0.547960000000     0.0720755  
H371     H      0.100970000000     0.811790000000     0.977650000000     0.0711814  
H372     H      0.147170000000     0.804990000000     0.516430000000     0.037689   
H373     H      0.142740000000     0.762130000000     0.562500000000     0.0340494  
H374     H      0.112980000000     0.715140000000     0.544090000000     0.0330919  
H375     H      0.174850000000     0.797610000000     0.984010000000     0.0410912  
H376     H      0.128530000000     0.805040000000     0.944900000000     0.0549728  
H377     H      0.142940000000     0.752550000000     0.965580000000     0.0163359  
H378     H      0.169420000000     0.728310000000     0.559920000000     0.0347866  
H379     H      0.141160000000     0.708950000000     0.011540000000     0.0350138  
H380     H      0.093290000000     0.780980000000     0.947880000000     0.0690423  
H381     H      0.231780000000     0.840800000000     0.581190000000     0.0724454  
H382     H      0.258500000000     0.894810000000     0.574610000000     0.0397044  
H383     H      0.315480000000     0.890150000000     0.544030000000     0.0361927  
H384     H      0.313660000000     0.851550000000     0.999420000000     0.0297527  
H385     H      0.226360000000     0.913180000000     0.552670000000     0.0447787  
H386     H      0.197140000000     0.862070000000     0.566420000000     0.0568695  
H387     H      0.224850000000     0.870890000000     0.013520000000     0.0149965  
H388     H      0.318430000000     0.909920000000     0.005470000000     0.0381604  
H389     H      0.280280000000     0.872300000000     0.981230000000     0.0368754  
H390     H      0.208490000000     0.825690000000     0.547390000000     0.0687736  
H391     H      0.209380000000     0.591340000000     0.476600000000     0.0727237  
H392     H      0.218210000000     0.645330000000     0.501020000000     0.038978   
H393     H      0.253680000000     0.637840000000     0.557390000000     0.0368137  
H394     H      0.299850000000     0.601660000000     0.050570000000     0.0340447  
H395     H      0.239690000000     0.663530000000     0.468500000000     0.043458   
H396     H      0.222080000000     0.611420000000     0.440340000000     0.0565825  
H397     H      0.276280000000     0.620270000000     0.963630000000     0.0142925  
H398     H      0.291570000000     0.658750000000     0.057790000000     0.0363616  
H399     H      0.312970000000     0.623460000000     0.015370000000     0.0360791  
H400     H      0.240910000000     0.574800000000     0.951280000000     0.0700221  
H401     H      0.212650000000     0.960290000000     0.854040000000     0.0741786  
H402     H      0.260960000000     0.960000000000     0.891760000000     0.0433584  
H403     H      0.308710000000     0.000870000000     0.888660000000     0.0333087  
H404     H      0.289420000000     0.551690000000     0.866770000000     0.0342647  
H405     H      0.232900000000     0.963790000000     0.924600000000     0.0442763  
H406     H      0.184260000000     0.970410000000     0.884950000000     0.0590967  
H407     H      0.214720000000     0.515290000000     0.903070000000     0.0160049  
H408     H      0.310710000000     0.531050000000     0.919600000000     0.0358266  
H409     H      0.260890000000     0.555680000000     0.899320000000     0.0306091  
H410     H      0.188780000000     0.496330000000     0.850840000000     0.0667743  
H411     H      0.299040000000     0.959570000000     0.689370000000     0.0706764  
H412     H      0.276430000000     0.967630000000     0.633580000000     0.0379956  
H413     H      0.220290000000     0.003720000000     0.632960000000     0.0336916  
H414     H      0.223690000000     0.547400000000     0.672020000000     0.0335946  
H415     H      0.311110000000     0.987310000000     0.617590000000     0.043796   
H416     H      0.336060000000     0.973810000000     0.672060000000     0.0564513  
H417     H      0.311400000000     0.525870000000     0.660210000000     0.0143048  
H418     H      0.224000000000     0.541240000000     0.612320000000     0.0361295  
H419     H      0.260650000000     0.561330000000     0.654040000000     0.0353712  
H420     H      0.321150000000     0.991900000000     0.708120000000     0.0715604  
H421     H      0.967000000000     0.695660000000     0.832970000000     0.0674233  
H422     H      0.010450000000     0.688660000000     0.879650000000     0.0374276  
H423     H      0.060980000000     0.726340000000     0.877190000000     0.0320901  
H424     H      0.547240000000     0.778250000000     0.853680000000     0.0357678  
H425     H      0.981110000000     0.696640000000     0.910840000000     0.0373316  
H426     H      0.940620000000     0.696910000000     0.867370000000     0.0553734  
H427     H      0.467430000000     0.747780000000     0.885540000000     0.0171996  
H428     H      0.563900000000     0.756920000000     0.907380000000     0.0267429  
H429     H      0.517230000000     0.784350000000     0.884080000000     0.0366902  
H430     H      0.438590000000     0.728130000000     0.838530000000     0.0716986  
H431     H      0.455250000000     0.777080000000     0.580280000000     0.064276   
H432     H      0.466680000000     0.747110000000     0.635230000000     0.0400473  
H433     H      0.520680000000     0.709780000000     0.638360000000     0.0343797  
H434     H      0.059820000000     0.730920000000     0.600540000000     0.0330998  
H435     H      0.468850000000     0.783710000000     0.657700000000     0.04263    
H436     H      0.451470000000     0.810020000000     0.607740000000     0.0565709  
H437     H      0.010940000000     0.804140000000     0.621650000000     0.0169412  
H438     H      0.053720000000     0.725830000000     0.660870000000     0.0374416  
H439     H      0.061420000000     0.767900000000     0.621890000000     0.0320483  
H440     H      0.977710000000     0.813560000000     0.573950000000     0.073455   
H441     H      0.080960000000     0.547830000000     0.816870000000     0.0709451  
H442     H      0.137030000000     0.524710000000     0.811370000000     0.0375234  
H443     H      0.138200000000     0.969170000000     0.774300000000     0.0365157  
H444     H      0.100680000000     0.973630000000     0.728530000000     0.0249803  
H445     H      0.154440000000     0.558610000000     0.792050000000     0.0432798  
H446     H      0.099770000000     0.584100000000     0.803610000000     0.0554311  
H447     H      0.113600000000     0.559580000000     0.750960000000     0.0156801  
H448     H      0.160150000000     0.972810000000     0.736930000000     0.0371512  
H449     H      0.119880000000     0.009740000000     0.715230000000     0.0257527  
H450     H      0.064680000000     0.570120000000     0.783050000000     0.067672   
H451     H      0.419590000000     0.961720000000     0.815470000000     0.0737586  
H452     H      0.380140000000     0.008470000000     0.816730000000     0.0318846  
H453     H      0.382000000000     0.556660000000     0.775990000000     0.0360732  
H454     H      0.406210000000     0.539110000000     0.725040000000     0.0319485  
H455     H      0.348290000000     0.979980000000     0.812040000000     0.0410094  
H456     H      0.388690000000     0.933620000000     0.805550000000     0.0562271  
H457     H      0.370750000000     0.963700000000     0.759440000000     0.0175041  
H458     H      0.351810000000     0.557690000000     0.744630000000     0.0355694  
H459     H      0.374800000000     0.510280000000     0.718970000000     0.0303837  
H460     H      0.422070000000     0.938390000000     0.778560000000     0.0650196  
H461     H      0.069970000000     0.922510000000     0.740880000000     0.0652239  
H462     H      0.055110000000     0.867880000000     0.766910000000     0.04221    
H463     H      0.502440000000     0.865710000000     0.805600000000     0.0330851  
H464     H      0.468590000000     0.908390000000     0.789440000000     0.0305464  
H465     H      0.051190000000     0.848010000000     0.728530000000     0.0421319  
H466     H      0.073330000000     0.897070000000     0.705970000000     0.056975   
H467     H      0.012280000000     0.887680000000     0.709490000000     0.01872    
H468     H      0.467210000000     0.848080000000     0.788360000000     0.036152   
H469     H      0.460370000000     0.890810000000     0.750890000000     0.0307311  
H470     H      0.049810000000     0.932230000000     0.703290000000     0.0743925  
H471     H      0.517890000000     0.674000000000     0.819970000000     0.0640664  
H472     H      0.481990000000     0.623210000000     0.804460000000     0.0407376  
H473     H      0.449690000000     0.620920000000     0.748990000000     0.0324156  
H474     H      0.474500000000     0.659400000000     0.714270000000     0.0334915  
H475     H      0.016890000000     0.597950000000     0.807760000000     0.0395512  
H476     H      0.046600000000     0.642870000000     0.827420000000     0.0547468  
H477     H      0.045260000000     0.630360000000     0.766510000000     0.0163299  
H478     H      0.467630000000     0.599030000000     0.716540000000     0.0353999  
H479     H      0.010750000000     0.636620000000     0.711420000000     0.0324934  
H480     H      0.057630000000     0.674890000000     0.801840000000     0.0727829  
H481     H      0.942310000000     0.222450000000     0.067740000000     0.0653492  
H482     H      0.892590000000     0.260820000000     0.556420000000     0.0393181  
H483     H      0.889680000000     0.293170000000     0.500510000000     0.0333199  
H484     H      0.921170000000     0.264520000000     0.460710000000     0.0338313  
H485     H      0.864950000000     0.228010000000     0.060570000000     0.041209   
H486     H      0.910220000000     0.194980000000     0.076060000000     0.0548284  
H487     H      0.892950000000     0.198850000000     0.017120000000     0.0175884  
H488     H      0.862680000000     0.278310000000     0.470310000000     0.0355828  
H489     H      0.894850000000     0.230910000000     0.963130000000     0.0327238  
H490     H      0.940530000000     0.183890000000     0.047960000000     0.0718756  
H491     H      0.600970000000     0.311790000000     0.477650000000     0.0707236  
H492     H      0.647170000000     0.304990000000     0.016430000000     0.0374578  
H493     H      0.642740000000     0.262130000000     0.062500000000     0.0339839  
H494     H      0.612980000000     0.215140000000     0.044090000000     0.0329749  
H495     H      0.674850000000     0.297610000000     0.484010000000     0.0408661  
H496     H      0.628530000000     0.305040000000     0.444900000000     0.0546751  
H497     H      0.642940000000     0.252550000000     0.465580000000     0.0163786  
H498     H      0.669420000000     0.228310000000     0.059920000000     0.0347747  
H499     H      0.641160000000     0.208950000000     0.511550000000     0.0349359  
H500     H      0.593290000000     0.280980000000     0.447880000000     0.0688713  
H501     H      0.731790000000     0.340800000000     0.081190000000     0.0721748  
H502     H      0.758500000000     0.394810000000     0.074610000000     0.0390172  
H503     H      0.815480000000     0.390140000000     0.044030000000     0.0355172  
H504     H      0.813660000000     0.351550000000     0.499420000000     0.0294229  
H505     H      0.726360000000     0.413180000000     0.052670000000     0.0436814  
H506     H      0.697140000000     0.362070000000     0.066420000000     0.0562438  
H507     H      0.724850000000     0.370890000000     0.513520000000     0.0147474  
H508     H      0.818430000000     0.409920000000     0.505470000000     0.0372217  
H509     H      0.780280000000     0.372300000000     0.481230000000     0.0365176  
H510     H      0.708490000000     0.325690000000     0.047390000000     0.0686166  
H511     H      0.709380000000     0.091340000000     0.976600000000     0.0721361  
H512     H      0.718210000000     0.145330000000     0.001020000000     0.0387592  
H513     H      0.753680000000     0.137840000000     0.057390000000     0.0367655  
H514     H      0.799850000000     0.101660000000     0.550560000000     0.0338751  
H515     H      0.739690000000     0.163530000000     0.968500000000     0.0433889  
H516     H      0.722080000000     0.111420000000     0.940340000000     0.0562806  
H517     H      0.776280000000     0.120270000000     0.463630000000     0.0142524  
H518     H      0.791570000000     0.158750000000     0.557790000000     0.0363214  
H519     H      0.812970000000     0.123460000000     0.515370000000     0.0359183  
H520     H      0.740910000000     0.074800000000     0.451280000000     0.0691172  
H521     H      0.712650000000     0.460290000000     0.354040000000     0.0724055  
H522     H      0.760960000000     0.460000000000     0.391760000000     0.0412823  
H523     H      0.808710000000     0.500870000000     0.388660000000     0.0351157  
H524     H      0.789420000000     0.051690000000     0.366770000000     0.0337892  
H525     H      0.732900000000     0.463790000000     0.424600000000     0.0425621  
H526     H      0.684260000000     0.470410000000     0.384950000000     0.0558451  
H527     H      0.714720000000     0.015290000000     0.403070000000     0.00576951 
H528     H      0.810710000000     0.031050000000     0.419600000000     0.0360155  
H529     H      0.760890000000     0.055680000000     0.399320000000     0.0295893  
H530     H      0.688780000000     0.996330000000     0.350840000000     0.0718578  
H531     H      0.799040000000     0.459570000000     0.189370000000     0.0724437  
H532     H      0.776420000000     0.467630000000     0.133580000000     0.0395271  
H533     H      0.720290000000     0.503720000000     0.132960000000     0.03648    
H534     H      0.723690000000     0.047400000000     0.172020000000     0.0334816  
H535     H      0.811110000000     0.487310000000     0.117590000000     0.0442899  
H536     H      0.836060000000     0.473810000000     0.172060000000     0.0570048  
H537     H      0.811400000000     0.025870000000     0.160210000000     0.016443   
H538     H      0.724000000000     0.041240000000     0.112320000000     0.0355238  
H539     H      0.760650000000     0.061330000000     0.154040000000     0.0357062  
H540     H      0.821150000000     0.491900000000     0.208120000000     0.0706851  
H541     H      0.467000000000     0.195660000000     0.332970000000     0.0673245  
H542     H      0.510450000000     0.188660000000     0.379650000000     0.0374899  
H543     H      0.560980000000     0.226340000000     0.377190000000     0.0320594  
H544     H      0.047240000000     0.278250000000     0.353680000000     0.0356435  
H545     H      0.481100000000     0.196640000000     0.410840000000     0.0371752  
H546     H      0.440620000000     0.196910000000     0.367370000000     0.0552468  
H547     H      0.967430000000     0.247780000000     0.385540000000     0.0171681  
H548     H      0.063900000000     0.256920000000     0.407380000000     0.0266735  
H549     H      0.017230000000     0.284350000000     0.384080000000     0.0364344  
H550     H      0.938590000000     0.228130000000     0.338530000000     0.0716773  
H551     H      0.955250000000     0.277080000000     0.080280000000     0.0642374  
H552     H      0.966680000000     0.247110000000     0.135230000000     0.0400494  
H553     H      0.020680000000     0.209780000000     0.138360000000     0.0342454  
H554     H      0.559820000000     0.230920000000     0.100540000000     0.0330479  
H555     H      0.968850000000     0.283710000000     0.157700000000     0.0425528  
H556     H      0.951470000000     0.310020000000     0.107740000000     0.0562733  
H557     H      0.510940000000     0.304140000000     0.121650000000     0.016901   
H558     H      0.553720000000     0.225830000000     0.160870000000     0.0373963  
H559     H      0.561420000000     0.267900000000     0.121890000000     0.0319428  
H560     H      0.477710000000     0.313560000000     0.073950000000     0.0729018  
H561     H      0.580960000000     0.047830000000     0.316870000000     0.0700595  
H562     H      0.637030000000     0.024710000000     0.311370000000     0.0353518  
H563     H      0.638200000000     0.469180000000     0.274300000000     0.0350354  
H564     H      0.600680000000     0.473630000000     0.228530000000     0.0264013  
H565     H      0.654440000000     0.058610000000     0.292050000000     0.0432086  
H566     H      0.599770000000     0.084100000000     0.303610000000     0.0551889  
H567     H      0.613600000000     0.059580000000     0.250960000000     0.0153831  
H568     H      0.660150000000     0.472810000000     0.236930000000     0.0354524  
H569     H      0.619880000000     0.509740000000     0.215230000000     0.0350815  
H570     H      0.564680000000     0.070120000000     0.283050000000     0.0677718  
H571     H      0.919590000000     0.461720000000     0.315470000000     0.0722395  
H572     H      0.880140000000     0.508470000000     0.316730000000     0.042102   
H573     H      0.882000000000     0.056660000000     0.275990000000     0.0349459  
H574     H      0.906210000000     0.039110000000     0.225040000000     0.0322323  
H575     H      0.848290000000     0.479980000000     0.312040000000     0.0427074  
H576     H      0.888690000000     0.433620000000     0.305550000000     0.0559692  
H577     H      0.870750000000     0.463700000000     0.259440000000     0.0155479  
H578     H      0.851810000000     0.057690000000     0.244630000000     0.0351703  
H579     H      0.874800000000     0.010280000000     0.218970000000     0.0284961  
H580     H      0.922070000000     0.438390000000     0.278560000000     0.0649424  
H581     H      0.569970000000     0.422510000000     0.240880000000     0.0640586  
H582     H      0.555110000000     0.367880000000     0.266910000000     0.0418828  
H583     H      0.002440000000     0.365710000000     0.305600000000     0.0324876  
H584     H      0.968590000000     0.408390000000     0.289440000000     0.0300818  
H585     H      0.551190000000     0.348010000000     0.228530000000     0.0419618  
H586     H      0.573330000000     0.397070000000     0.205970000000     0.0562234  
H587     H      0.512290000000     0.387680000000     0.209490000000     0.0183798  
H588     H      0.967210000000     0.348080000000     0.288360000000     0.0359765  
H589     H      0.960380000000     0.390810000000     0.250890000000     0.0303767  
H590     H      0.549810000000     0.432230000000     0.203290000000     0.0726484  
H591     H      0.017890000000     0.174010000000     0.319970000000     0.0639464  
H592     H      0.982000000000     0.123210000000     0.304460000000     0.0407461  
H593     H      0.949690000000     0.120920000000     0.248990000000     0.0322969  
H594     H      0.974510000000     0.159400000000     0.214270000000     0.0333833  
H595     H      0.516890000000     0.097950000000     0.307760000000     0.0392625  
H596     H      0.546600000000     0.142870000000     0.327420000000     0.054558   
H597     H      0.545260000000     0.130370000000     0.266510000000     0.0163548  
H598     H      0.967630000000     0.099030000000     0.216540000000     0.0351292  
H599     H      0.510750000000     0.136620000000     0.211420000000     0.0325478  
H600     H      0.557630000000     0.174890000000     0.301840000000     0.0727321  
H601     H      0.942310000000     0.222450000000     0.567740000000     0.0653497  
H602     H      0.892590000000     0.260820000000     0.056420000000     0.0393136  
H603     H      0.889680000000     0.293170000000     0.000510000000     0.0332304  
H604     H      0.921170000000     0.264520000000     0.960710000000     0.0338414  
H605     H      0.864950000000     0.228010000000     0.560570000000     0.0412094  
H606     H      0.910220000000     0.194980000000     0.576060000000     0.0548304  
H607     H      0.892950000000     0.198850000000     0.517120000000     0.0176048  
H608     H      0.862680000000     0.278310000000     0.970310000000     0.0355633  
H609     H      0.894850000000     0.230910000000     0.463130000000     0.0327091  
H610     H      0.940530000000     0.183890000000     0.547960000000     0.0718811  
H611     H      0.600970000000     0.311790000000     0.977650000000     0.0707638  
H612     H      0.647170000000     0.304990000000     0.516430000000     0.0374356  
H613     H      0.642740000000     0.262130000000     0.562500000000     0.0339806  
H614     H      0.612980000000     0.215140000000     0.544090000000     0.0329816  
H615     H      0.674850000000     0.297610000000     0.984010000000     0.0409586  
H616     H      0.628530000000     0.305040000000     0.944900000000     0.0546943  
H617     H      0.642940000000     0.252550000000     0.965580000000     0.0163611  
H618     H      0.669420000000     0.228310000000     0.559920000000     0.0347716  
H619     H      0.641160000000     0.208950000000     0.011540000000     0.0349114  
H620     H      0.593290000000     0.280980000000     0.947880000000     0.068895   
H621     H      0.731790000000     0.340800000000     0.581190000000     0.0721806  
H622     H      0.758500000000     0.394810000000     0.574610000000     0.0390174  
H623     H      0.815480000000     0.390140000000     0.544030000000     0.035537   
H624     H      0.813660000000     0.351550000000     0.999420000000     0.0295246  
H625     H      0.726360000000     0.413180000000     0.552670000000     0.0436865  
H626     H      0.697140000000     0.362070000000     0.566420000000     0.0562494  
H627     H      0.724850000000     0.370890000000     0.013520000000     0.0147242  
H628     H      0.818430000000     0.409920000000     0.005470000000     0.037184   
H629     H      0.780280000000     0.372300000000     0.981230000000     0.0366147  
H630     H      0.708490000000     0.325690000000     0.547390000000     0.0686246  
H631     H      0.709380000000     0.091340000000     0.476600000000     0.0721042  
H632     H      0.718210000000     0.145330000000     0.501020000000     0.0388445  
H633     H      0.753680000000     0.137840000000     0.557390000000     0.036766   
H634     H      0.799850000000     0.101660000000     0.050570000000     0.0338571  
H635     H      0.739690000000     0.163530000000     0.468500000000     0.0434059  
H636     H      0.722080000000     0.111420000000     0.440340000000     0.0562734  
H637     H      0.776280000000     0.120270000000     0.963630000000     0.0142625  
H638     H      0.791570000000     0.158750000000     0.057790000000     0.0363235  
H639     H      0.812970000000     0.123460000000     0.015370000000     0.0358928  
H640     H      0.740910000000     0.074800000000     0.951280000000     0.0691331  
H641     H      0.712650000000     0.460290000000     0.854040000000     0.0724072  
H642     H      0.760960000000     0.460000000000     0.891760000000     0.0412864  
H643     H      0.808710000000     0.500870000000     0.888660000000     0.03512    
H644     H      0.789420000000     0.051690000000     0.866770000000     0.033791   
H645     H      0.732900000000     0.463790000000     0.924600000000     0.0425725  
H646     H      0.684260000000     0.470410000000     0.884950000000     0.0558519  
H647     H      0.714720000000     0.015290000000     0.903070000000     0.00577528 
H648     H      0.810710000000     0.031050000000     0.919600000000     0.0360254  
H649     H      0.760890000000     0.055680000000     0.899320000000     0.0295925  
H650     H      0.688780000000     0.996330000000     0.850840000000     0.0718595  
H651     H      0.799040000000     0.459570000000     0.689370000000     0.0724436  
H652     H      0.776420000000     0.467630000000     0.633580000000     0.0395271  
H653     H      0.720290000000     0.503720000000     0.632960000000     0.0364811  
H654     H      0.723690000000     0.047400000000     0.672020000000     0.0334817  
H655     H      0.811110000000     0.487310000000     0.617590000000     0.0442911  
H656     H      0.836060000000     0.473810000000     0.672060000000     0.0570055  
H657     H      0.811400000000     0.025870000000     0.660210000000     0.0164432  
H658     H      0.724000000000     0.041240000000     0.612320000000     0.0355257  
H659     H      0.760650000000     0.061330000000     0.654040000000     0.0357062  
H660     H      0.821150000000     0.491900000000     0.708120000000     0.0706849  
H661     H      0.467000000000     0.195660000000     0.832970000000     0.0673254  
H662     H      0.510450000000     0.188660000000     0.879650000000     0.0374941  
H663     H      0.560980000000     0.226340000000     0.877190000000     0.0320618  
H664     H      0.047240000000     0.278250000000     0.853680000000     0.0356443  
H665     H      0.481100000000     0.196640000000     0.910840000000     0.0371842  
H666     H      0.440620000000     0.196910000000     0.867370000000     0.0552511  
H667     H      0.967430000000     0.247780000000     0.885540000000     0.01717    
H668     H      0.063900000000     0.256920000000     0.907380000000     0.0266774  
H669     H      0.017230000000     0.284350000000     0.884080000000     0.0364364  
H670     H      0.938590000000     0.228130000000     0.838530000000     0.0716783  
H671     H      0.955250000000     0.277080000000     0.580280000000     0.0642425  
H672     H      0.966680000000     0.247110000000     0.635230000000     0.0400493  
H673     H      0.020680000000     0.209780000000     0.638360000000     0.0342456  
H674     H      0.559820000000     0.230920000000     0.600540000000     0.0330487  
H675     H      0.968850000000     0.283710000000     0.657700000000     0.042553   
H676     H      0.951470000000     0.310020000000     0.607740000000     0.0562775  
H677     H      0.510940000000     0.304140000000     0.621650000000     0.0169029  
H678     H      0.553720000000     0.225830000000     0.660870000000     0.0373962  
H679     H      0.561420000000     0.267900000000     0.621890000000     0.031944   
H680     H      0.477710000000     0.313560000000     0.573950000000     0.0729138  
H681     H      0.580960000000     0.047830000000     0.816870000000     0.0700628  
H682     H      0.637030000000     0.024710000000     0.811370000000     0.0353538  
H683     H      0.638200000000     0.469180000000     0.774300000000     0.0350359  
H684     H      0.600680000000     0.473630000000     0.728530000000     0.0264017  
H685     H      0.654440000000     0.058610000000     0.792050000000     0.0432094  
H686     H      0.599770000000     0.084100000000     0.803610000000     0.0551907  
H687     H      0.613600000000     0.059580000000     0.750960000000     0.0153828  
H688     H      0.660150000000     0.472810000000     0.736930000000     0.0354524  
H689     H      0.619880000000     0.509740000000     0.715230000000     0.0350821  
H690     H      0.564680000000     0.070120000000     0.783050000000     0.0677724  
H691     H      0.919590000000     0.461720000000     0.815470000000     0.0722426  
H692     H      0.880140000000     0.508470000000     0.816730000000     0.0421047  
H693     H      0.882000000000     0.056660000000     0.775990000000     0.0349467  
H694     H      0.906210000000     0.039110000000     0.725040000000     0.0322325  
H695     H      0.848290000000     0.479980000000     0.812040000000     0.0427089  
H696     H      0.888690000000     0.433620000000     0.805550000000     0.0559711  
H697     H      0.870750000000     0.463700000000     0.759440000000     0.0155475  
H698     H      0.851810000000     0.057690000000     0.744630000000     0.0351702  
H699     H      0.874800000000     0.010280000000     0.718970000000     0.0284962  
H700     H      0.922070000000     0.438390000000     0.778560000000     0.0649429  
H701     H      0.569970000000     0.422510000000     0.740880000000     0.0640589  
H702     H      0.555110000000     0.367880000000     0.766910000000     0.0418831  
H703     H      0.002440000000     0.365710000000     0.805600000000     0.0324892  
H704     H      0.968590000000     0.408390000000     0.789440000000     0.0300829  
H705     H      0.551190000000     0.348010000000     0.728530000000     0.0419619  
H706     H      0.573330000000     0.397070000000     0.705970000000     0.0562244  
H707     H      0.512290000000     0.387680000000     0.709490000000     0.0183805  
H708     H      0.967210000000     0.348080000000     0.788360000000     0.0359771  
H709     H      0.960380000000     0.390810000000     0.750890000000     0.0303767  
H710     H      0.549810000000     0.432230000000     0.703290000000     0.0726498  
H711     H      0.017890000000     0.174010000000     0.819970000000     0.0639474  
H712     H      0.982000000000     0.123210000000     0.804460000000     0.040748   
H713     H      0.949690000000     0.120920000000     0.748990000000     0.032297   
H714     H      0.974510000000     0.159400000000     0.714270000000     0.0333832  
H715     H      0.516890000000     0.097950000000     0.807760000000     0.0392648  
H716     H      0.546600000000     0.142870000000     0.827420000000     0.054561   
H717     H      0.545260000000     0.130370000000     0.766510000000     0.0163545  
H718     H      0.967630000000     0.099030000000     0.716540000000     0.0351296  
H719     H      0.510750000000     0.136620000000     0.711420000000     0.0325479  
H720     H      0.557630000000     0.174890000000     0.801840000000     0.0727327  
H721     H      0.942310000000     0.722440000000     0.067740000000     0.0654404  
H722     H      0.892590000000     0.760820000000     0.556420000000     0.0393998  
H723     H      0.889680000000     0.793170000000     0.500510000000     0.0335675  
H724     H      0.921170000000     0.764520000000     0.460710000000     0.0339544  
H725     H      0.864950000000     0.728010000000     0.060570000000     0.0412432  
H726     H      0.910220000000     0.694980000000     0.076060000000     0.054988   
H727     H      0.892950000000     0.698850000000     0.017120000000     0.0176789  
H728     H      0.862680000000     0.778310000000     0.470310000000     0.0357033  
H729     H      0.894850000000     0.730910000000     0.963130000000     0.0327677  
H730     H      0.940530000000     0.683890000000     0.047960000000     0.0721425  
H731     H      0.600970000000     0.811790000000     0.477650000000     0.0711456  
H732     H      0.647170000000     0.804990000000     0.016430000000     0.0377126  
H733     H      0.642740000000     0.762130000000     0.062500000000     0.034054   
H734     H      0.612980000000     0.715140000000     0.044090000000     0.0330932  
H735     H      0.674850000000     0.797610000000     0.484010000000     0.0409989  
H736     H      0.628530000000     0.805040000000     0.444900000000     0.0549562  
H737     H      0.642940000000     0.752550000000     0.465580000000     0.0163531  
H738     H      0.669420000000     0.728310000000     0.059920000000     0.0347866  
H739     H      0.641160000000     0.708950000000     0.511550000000     0.0350396  
H740     H      0.593290000000     0.780980000000     0.447880000000     0.0690199  
H741     H      0.731790000000     0.840800000000     0.081190000000     0.072416   
H742     H      0.758500000000     0.894810000000     0.074610000000     0.0397266  
H743     H      0.815480000000     0.890150000000     0.044030000000     0.0361807  
H744     H      0.813660000000     0.851550000000     0.499420000000     0.0296554  
H745     H      0.726360000000     0.913180000000     0.052670000000     0.0448087  
H746     H      0.697140000000     0.862070000000     0.066420000000     0.0568602  
H747     H      0.724850000000     0.870890000000     0.513520000000     0.015017   
H748     H      0.818430000000     0.909920000000     0.505470000000     0.0382081  
H749     H      0.780280000000     0.872300000000     0.481230000000     0.0367799  
H750     H      0.708490000000     0.825690000000     0.047390000000     0.0687576  
H751     H      0.709380000000     0.591340000000     0.976600000000     0.0727558  
H752     H      0.718210000000     0.645330000000     0.001020000000     0.0388868  
H753     H      0.753680000000     0.637840000000     0.057390000000     0.036821   
H754     H      0.799850000000     0.601660000000     0.550560000000     0.0340741  
H755     H      0.739690000000     0.663530000000     0.968500000000     0.0434307  
H756     H      0.722080000000     0.611420000000     0.940340000000     0.0565873  
H757     H      0.776280000000     0.620270000000     0.463630000000     0.0142902  
H758     H      0.791570000000     0.658750000000     0.557790000000     0.0363744  
H759     H      0.812970000000     0.623460000000     0.515370000000     0.0361143  
H760     H      0.740910000000     0.574800000000     0.451280000000     0.0700071  
H761     H      0.712650000000     0.960290000000     0.354040000000     0.0741803  
H762     H      0.760960000000     0.960000000000     0.391760000000     0.0433699  
H763     H      0.808710000000     0.000870000000     0.388660000000     0.0333012  
H764     H      0.789420000000     0.551690000000     0.366770000000     0.0342661  
H765     H      0.732900000000     0.963790000000     0.424600000000     0.0442786  
H766     H      0.684260000000     0.970410000000     0.384950000000     0.0590954  
H767     H      0.714720000000     0.515290000000     0.403070000000     0.0159955  
H768     H      0.810710000000     0.531050000000     0.419600000000     0.0358162  
H769     H      0.760890000000     0.555680000000     0.399320000000     0.0306096  
H770     H      0.688780000000     0.496330000000     0.350840000000     0.0667783  
H771     H      0.799040000000     0.959570000000     0.189370000000     0.0706752  
H772     H      0.776420000000     0.967630000000     0.133580000000     0.0379864  
H773     H      0.720290000000     0.003720000000     0.132960000000     0.0337046  
H774     H      0.723690000000     0.547400000000     0.172020000000     0.0335977  
H775     H      0.811110000000     0.987310000000     0.117590000000     0.0438026  
H776     H      0.836060000000     0.973810000000     0.172060000000     0.0564569  
H777     H      0.811400000000     0.525870000000     0.160210000000     0.0143131  
H778     H      0.724000000000     0.541240000000     0.112320000000     0.0361485  
H779     H      0.760650000000     0.561330000000     0.154040000000     0.0353709  
H780     H      0.821150000000     0.991900000000     0.208120000000     0.0715611  
H781     H      0.467000000000     0.695660000000     0.332970000000     0.0673662  
H782     H      0.510450000000     0.688660000000     0.379650000000     0.037619   
H783     H      0.560980000000     0.726340000000     0.377190000000     0.0320926  
H784     H      0.047240000000     0.778250000000     0.353680000000     0.0357669  
H785     H      0.481100000000     0.696640000000     0.410840000000     0.0373245  
H786     H      0.440620000000     0.696910000000     0.367370000000     0.0553534  
H787     H      0.967430000000     0.747780000000     0.385540000000     0.0172301  
H788     H      0.063900000000     0.756920000000     0.407380000000     0.0267385  
H789     H      0.017230000000     0.784350000000     0.384080000000     0.0366464  
H790     H      0.938590000000     0.728130000000     0.338530000000     0.0717084  
H791     H      0.955250000000     0.777080000000     0.080280000000     0.064325   
H792     H      0.966680000000     0.747110000000     0.135230000000     0.0400756  
H793     H      0.020680000000     0.709780000000     0.138360000000     0.0343376  
H794     H      0.559820000000     0.730920000000     0.100540000000     0.0331158  
H795     H      0.968850000000     0.783710000000     0.157700000000     0.0426581  
H796     H      0.951470000000     0.810020000000     0.107740000000     0.0566158  
H797     H      0.510940000000     0.804140000000     0.121650000000     0.0171464  
H798     H      0.553720000000     0.725830000000     0.160870000000     0.0374405  
H799     H      0.561420000000     0.767900000000     0.121890000000     0.0320568  
H800     H      0.477710000000     0.813560000000     0.073950000000     0.0733422  
H801     H      0.580960000000     0.547830000000     0.316870000000     0.0709573  
H802     H      0.637030000000     0.524710000000     0.311370000000     0.0375262  
H803     H      0.638200000000     0.969170000000     0.274300000000     0.0365169  
H804     H      0.600680000000     0.973630000000     0.228530000000     0.0249826  
H805     H      0.654440000000     0.558610000000     0.292050000000     0.0432801  
H806     H      0.599770000000     0.584100000000     0.303610000000     0.055435   
H807     H      0.613600000000     0.559580000000     0.250960000000     0.0156838  
H808     H      0.660150000000     0.972810000000     0.236930000000     0.0371508  
H809     H      0.619880000000     0.009740000000     0.215230000000     0.0257592  
H810     H      0.564680000000     0.570120000000     0.283050000000     0.0676934  
H811     H      0.919590000000     0.961720000000     0.315470000000     0.0737758  
H812     H      0.880140000000     0.008470000000     0.316730000000     0.0318909  
H813     H      0.882000000000     0.556660000000     0.275990000000     0.0360756  
H814     H      0.906210000000     0.539110000000     0.225040000000     0.0319594  
H815     H      0.848290000000     0.979980000000     0.312040000000     0.0410095  
H816     H      0.888690000000     0.933620000000     0.305550000000     0.0562262  
H817     H      0.870750000000     0.963700000000     0.259440000000     0.0175136  
H818     H      0.851810000000     0.557690000000     0.244630000000     0.0355687  
H819     H      0.874800000000     0.510280000000     0.218970000000     0.030392   
H820     H      0.922070000000     0.938390000000     0.278560000000     0.065035   
H821     H      0.569970000000     0.922510000000     0.240880000000     0.0652224  
H822     H      0.555110000000     0.867880000000     0.266910000000     0.0422121  
H823     H      0.002440000000     0.865710000000     0.305600000000     0.0329009  
H824     H      0.968590000000     0.908390000000     0.289440000000     0.030594   
H825     H      0.551190000000     0.848010000000     0.228530000000     0.0421334  
H826     H      0.573330000000     0.897070000000     0.205970000000     0.0569806  
H827     H      0.512290000000     0.887680000000     0.209490000000     0.0187591  
H828     H      0.967210000000     0.848080000000     0.288360000000     0.0361327  
H829     H      0.960380000000     0.890810000000     0.250890000000     0.0307731  
H830     H      0.549810000000     0.932230000000     0.203290000000     0.0744023  
H831     H      0.017890000000     0.674000000000     0.319970000000     0.0640275  
H832     H      0.982000000000     0.623210000000     0.304460000000     0.0409656  
H833     H      0.949690000000     0.620920000000     0.248990000000     0.0324488  
H834     H      0.974510000000     0.659400000000     0.214270000000     0.0334614  
H835     H      0.516890000000     0.597950000000     0.307760000000     0.0395087  
H836     H      0.546600000000     0.642870000000     0.327420000000     0.0547503  
H837     H      0.545260000000     0.630360000000     0.266510000000     0.0163621  
H838     H      0.967630000000     0.599030000000     0.216540000000     0.0354541  
H839     H      0.510750000000     0.636620000000     0.211420000000     0.0327011  
H840     H      0.557630000000     0.674890000000     0.301840000000     0.0727732  
H841     H      0.942310000000     0.722440000000     0.567740000000     0.0654409  
H842     H      0.892590000000     0.760820000000     0.056420000000     0.0393954  
H843     H      0.889680000000     0.793170000000     0.000510000000     0.0334785  
H844     H      0.921170000000     0.764520000000     0.960710000000     0.0339644  
H845     H      0.864950000000     0.728010000000     0.560570000000     0.0412436  
H846     H      0.910220000000     0.694980000000     0.576060000000     0.05499    
H847     H      0.892950000000     0.698850000000     0.517120000000     0.0176954  
H848     H      0.862680000000     0.778310000000     0.970310000000     0.0356839  
H849     H      0.894850000000     0.730910000000     0.463130000000     0.0327531  
H850     H      0.940530000000     0.683890000000     0.547960000000     0.0721481  
H851     H      0.600970000000     0.811790000000     0.977650000000     0.0711855  
H852     H      0.647170000000     0.804990000000     0.516430000000     0.0376905  
H853     H      0.642740000000     0.762130000000     0.562500000000     0.0340507  
H854     H      0.612980000000     0.715140000000     0.544090000000     0.0331     
H855     H      0.674850000000     0.797610000000     0.984010000000     0.0410909  
H856     H      0.628530000000     0.805040000000     0.944900000000     0.0549752  
H857     H      0.642940000000     0.752550000000     0.965580000000     0.0163357  
H858     H      0.669420000000     0.728310000000     0.559920000000     0.0347835  
H859     H      0.641160000000     0.708950000000     0.011540000000     0.0350151  
H860     H      0.593290000000     0.780980000000     0.947880000000     0.0690435  
H861     H      0.731790000000     0.840800000000     0.581190000000     0.0724218  
H862     H      0.758500000000     0.894810000000     0.574610000000     0.0397268  
H863     H      0.815480000000     0.890150000000     0.544030000000     0.0362004  
H864     H      0.813660000000     0.851550000000     0.999420000000     0.0297564  
H865     H      0.726360000000     0.913180000000     0.552670000000     0.0448138  
H866     H      0.697140000000     0.862070000000     0.566420000000     0.0568658  
H867     H      0.724850000000     0.870890000000     0.013520000000     0.0149937  
H868     H      0.818430000000     0.909920000000     0.005470000000     0.0381706  
H869     H      0.780280000000     0.872300000000     0.981230000000     0.0368764  
H870     H      0.708490000000     0.825690000000     0.547390000000     0.0687655  
H871     H      0.709380000000     0.591340000000     0.476600000000     0.0727241  
H872     H      0.718210000000     0.645330000000     0.501020000000     0.0389719  
H873     H      0.753680000000     0.637840000000     0.557390000000     0.0368215  
H874     H      0.799850000000     0.601660000000     0.050570000000     0.0340561  
H875     H      0.739690000000     0.663530000000     0.468500000000     0.0434477  
H876     H      0.722080000000     0.611420000000     0.440340000000     0.0565801  
H877     H      0.776280000000     0.620270000000     0.963630000000     0.0143003  
H878     H      0.791570000000     0.658750000000     0.057790000000     0.0363765  
H879     H      0.812970000000     0.623460000000     0.015370000000     0.0360887  
H880     H      0.740910000000     0.574800000000     0.951280000000     0.0700229  
H881     H      0.712650000000     0.960290000000     0.854040000000     0.0741819  
H882     H      0.760960000000     0.960000000000     0.891760000000     0.0433739  
H883     H      0.808710000000     0.000870000000     0.888660000000     0.0333056  
H884     H      0.789420000000     0.551690000000     0.866770000000     0.0342679  
H885     H      0.732900000000     0.963790000000     0.924600000000     0.0442888  
H886     H      0.684260000000     0.970410000000     0.884950000000     0.0591019  
H887     H      0.714720000000     0.515290000000     0.903070000000     0.0160006  
H888     H      0.810710000000     0.531050000000     0.919600000000     0.0358261  
H889     H      0.760890000000     0.555680000000     0.899320000000     0.0306127  
H890     H      0.688780000000     0.496330000000     0.850840000000     0.0667804  
H891     H      0.799040000000     0.959570000000     0.689370000000     0.0706751  
H892     H      0.776420000000     0.967630000000     0.633580000000     0.0379865  
H893     H      0.720290000000     0.003720000000     0.632960000000     0.0337057  
H894     H      0.723690000000     0.547400000000     0.672020000000     0.0335978  
H895     H      0.811110000000     0.987310000000     0.617590000000     0.0438038  
H896     H      0.836060000000     0.973810000000     0.672060000000     0.0564576  
H897     H      0.811400000000     0.525870000000     0.660210000000     0.0143133  
H898     H      0.724000000000     0.541240000000     0.612320000000     0.0361504  
H899     H      0.760650000000     0.561330000000     0.654040000000     0.0353708  
H900     H      0.821150000000     0.991900000000     0.708120000000     0.0715608  
H901     H      0.467000000000     0.695660000000     0.832970000000     0.0673671  
H902     H      0.510450000000     0.688660000000     0.879650000000     0.0376232  
H903     H      0.560980000000     0.726340000000     0.877190000000     0.0320951  
H904     H      0.047240000000     0.778250000000     0.853680000000     0.0357677  
H905     H      0.481100000000     0.696640000000     0.910840000000     0.0373335  
H906     H      0.440620000000     0.696910000000     0.867370000000     0.0553578  
H907     H      0.967430000000     0.747780000000     0.885540000000     0.0172319  
H908     H      0.063900000000     0.756920000000     0.907380000000     0.0267424  
H909     H      0.017230000000     0.784350000000     0.884080000000     0.0366484  
H910     H      0.938590000000     0.728130000000     0.838530000000     0.0717094  
H911     H      0.955250000000     0.777080000000     0.580280000000     0.06433    
H912     H      0.966680000000     0.747110000000     0.635230000000     0.0400756  
H913     H      0.020680000000     0.709780000000     0.638360000000     0.0343379  
H914     H      0.559820000000     0.730920000000     0.600540000000     0.0331167  
H915     H      0.968850000000     0.783710000000     0.657700000000     0.0426583  
H916     H      0.951470000000     0.810020000000     0.607740000000     0.05662    
H917     H      0.510940000000     0.804140000000     0.621650000000     0.0171483  
H918     H      0.553720000000     0.725830000000     0.660870000000     0.0374404  
H919     H      0.561420000000     0.767900000000     0.621890000000     0.032058   
H920     H      0.477710000000     0.813560000000     0.573950000000     0.0733542  
H921     H      0.580960000000     0.547830000000     0.816870000000     0.0709606  
H922     H      0.637030000000     0.524710000000     0.811370000000     0.0375282  
H923     H      0.638200000000     0.969170000000     0.774300000000     0.0365173  
H924     H      0.600680000000     0.973630000000     0.728530000000     0.024983   
H925     H      0.654440000000     0.558610000000     0.792050000000     0.0432808  
H926     H      0.599770000000     0.584100000000     0.803610000000     0.0554368  
H927     H      0.613600000000     0.559580000000     0.750960000000     0.0156835  
H928     H      0.660150000000     0.972810000000     0.736930000000     0.0371508  
H929     H      0.619880000000     0.009740000000     0.715230000000     0.02576    
H930     H      0.564680000000     0.570120000000     0.783050000000     0.067694   
H931     H      0.919590000000     0.961720000000     0.815470000000     0.0737788  
H932     H      0.880140000000     0.008470000000     0.816730000000     0.0318941  
H933     H      0.882000000000     0.556660000000     0.775990000000     0.0360764  
H934     H      0.906210000000     0.539110000000     0.725040000000     0.0319597  
H935     H      0.848290000000     0.979980000000     0.812040000000     0.041011   
H936     H      0.888690000000     0.933620000000     0.805550000000     0.0562281  
H937     H      0.870750000000     0.963700000000     0.759440000000     0.0175132  
H938     H      0.851810000000     0.557690000000     0.744630000000     0.0355686  
H939     H      0.874800000000     0.510280000000     0.718970000000     0.0303921  
H940     H      0.922070000000     0.938390000000     0.778560000000     0.0650356  
H941     H      0.569970000000     0.922510000000     0.740880000000     0.0652226  
H942     H      0.555110000000     0.867880000000     0.766910000000     0.0422125  
H943     H      0.002440000000     0.865710000000     0.805600000000     0.0329025  
H944     H      0.968590000000     0.908390000000     0.789440000000     0.030595   
H945     H      0.551190000000     0.848010000000     0.728530000000     0.0421335  
H946     H      0.573330000000     0.897070000000     0.705970000000     0.0569816  
H947     H      0.512290000000     0.887680000000     0.709490000000     0.0187599  
H948     H      0.967210000000     0.848080000000     0.788360000000     0.0361333  
H949     H      0.960380000000     0.890810000000     0.750890000000     0.0307731  
H950     H      0.549810000000     0.932230000000     0.703290000000     0.0744037  
H951     H      0.017890000000     0.674000000000     0.819970000000     0.0640284  
H952     H      0.982000000000     0.623210000000     0.804460000000     0.0409674  
H953     H      0.949690000000     0.620920000000     0.748990000000     0.0324488  
H954     H      0.974510000000     0.659400000000     0.714270000000     0.0334612  
H955     H      0.516890000000     0.597950000000     0.807760000000     0.0395109  
H956     H      0.546600000000     0.642870000000     0.827420000000     0.0547533  
H957     H      0.545260000000     0.630360000000     0.766510000000     0.0163618  
H958     H      0.967630000000     0.599030000000     0.716540000000     0.0354545  
H959     H      0.510750000000     0.636620000000     0.711420000000     0.0327013  
H960     H      0.557630000000     0.674890000000     0.801840000000     0.0727738  
N1       N      0.424590000000     0.236180000000     0.504080000000    -0.190836   
N2       N      0.361290000000     0.254880000000     0.016670000000    -0.17776    
N3       N      0.111450000000     0.249420000000     0.505350000000    -0.191024   
N4       N      0.174600000000     0.263530000000     0.022720000000    -0.179295   
N5       N      0.268850000000     0.348650000000     0.524890000000    -0.191248   
N6       N      0.273190000000     0.414770000000     0.530490000000    -0.177331   
N7       N      0.269420000000     0.098160000000     0.508660000000    -0.189964   
N8       N      0.262750000000     0.164410000000     0.514940000000    -0.176983   
N9       N      0.249280000000     0.519120000000     0.366150000000    -0.192362   
N10      N      0.272740000000     0.496530000000     0.424600000000    -0.177858   
N11      N      0.265140000000     0.517780000000     0.179220000000    -0.190554   
N12      N      0.265870000000     0.511380000000     0.111600000000    -0.176971   
N13      N      0.504820000000     0.248400000000     0.350680000000    -0.189651   
N14      N      0.523310000000     0.225690000000     0.411390000000    -0.178682   
N15      N      0.018370000000     0.261450000000     0.095700000000    -0.190898   
N16      N      0.509440000000     0.252580000000     0.162250000000    -0.176588   
N17      N      0.093470000000     0.514360000000     0.258700000000    -0.190328   
N18      N      0.160600000000     0.013850000000     0.267790000000    -0.178538   
N19      N      0.406870000000     0.498590000000     0.256870000000    -0.192003   
N20      N      0.347550000000     0.019830000000     0.279380000000    -0.181683   
N21      N      0.006430000000     0.411560000000     0.254170000000    -0.189893   
N22      N      0.010530000000     0.344940000000     0.260110000000    -0.176419   
N23      N      0.005530000000     0.160250000000     0.255990000000    -0.190659   
N24      N      0.491210000000     0.095720000000     0.262790000000    -0.177821   
N25      N      0.424590000000     0.236180000000     0.004080000000    -0.190856   
N26      N      0.361290000000     0.254880000000     0.516670000000    -0.177724   
N27      N      0.111450000000     0.249420000000     0.005350000000    -0.191079   
N28      N      0.174600000000     0.263530000000     0.522720000000    -0.179326   
N29      N      0.268850000000     0.348650000000     0.024890000000    -0.191276   
N30      N      0.273190000000     0.414770000000     0.030490000000    -0.177342   
N31      N      0.269420000000     0.098160000000     0.008660000000    -0.190002   
N32      N      0.262750000000     0.164410000000     0.014940000000    -0.177017   
N33      N      0.249280000000     0.519120000000     0.866150000000    -0.192362   
N34      N      0.272740000000     0.496530000000     0.924600000000    -0.177852   
N35      N      0.265140000000     0.517780000000     0.679220000000    -0.190554   
N36      N      0.265870000000     0.511380000000     0.611600000000    -0.176973   
N37      N      0.504820000000     0.248400000000     0.850680000000    -0.189651   
N38      N      0.523310000000     0.225690000000     0.911390000000    -0.178678   
N39      N      0.018370000000     0.261450000000     0.595700000000    -0.190896   
N40      N      0.509440000000     0.252580000000     0.662250000000    -0.176588   
N41      N      0.093470000000     0.514360000000     0.758700000000    -0.190328   
N42      N      0.160600000000     0.013850000000     0.767790000000    -0.178538   
N43      N      0.406870000000     0.498590000000     0.756870000000    -0.192003   
N44      N      0.347550000000     0.019830000000     0.779380000000    -0.181682   
N45      N      0.006430000000     0.411560000000     0.754170000000    -0.189893   
N46      N      0.010530000000     0.344940000000     0.760110000000    -0.176419   
N47      N      0.005530000000     0.160250000000     0.755990000000    -0.19066    
N48      N      0.491210000000     0.095720000000     0.762790000000    -0.177821   
N49      N      0.424590000000     0.736180000000     0.504080000000    -0.190805   
N50      N      0.361290000000     0.754880000000     0.016670000000    -0.177731   
N51      N      0.111450000000     0.749430000000     0.505350000000    -0.190992   
N52      N      0.174600000000     0.763530000000     0.022720000000    -0.179282   
N53      N      0.268850000000     0.848650000000     0.524890000000    -0.191261   
N54      N      0.273190000000     0.914770000000     0.530490000000    -0.176533   
N55      N      0.269420000000     0.598160000000     0.508660000000    -0.190125   
N56      N      0.262750000000     0.664410000000     0.514940000000    -0.176966   
N57      N      0.249280000000     0.019120000000     0.366150000000    -0.196774   
N58      N      0.272740000000     0.996530000000     0.424600000000    -0.173507   
N59      N      0.265140000000     0.017780000000     0.179220000000    -0.187814   
N60      N      0.265870000000     0.011380000000     0.111600000000    -0.182308   
N61      N      0.504820000000     0.748400000000     0.350680000000    -0.189634   
N62      N      0.523310000000     0.725690000000     0.411390000000    -0.178617   
N63      N      0.018370000000     0.761450000000     0.095700000000    -0.190911   
N64      N      0.509440000000     0.752580000000     0.162250000000    -0.176568   
N65      N      0.093470000000     0.014360000000     0.258700000000    -0.195737   
N66      N      0.160600000000     0.513850000000     0.267790000000    -0.176332   
N67      N      0.406870000000     0.998580000000     0.256870000000    -0.187808   
N68      N      0.347550000000     0.519830000000     0.279380000000    -0.177302   
N69      N      0.006430000000     0.911560000000     0.254170000000    -0.189265   
N70      N      0.010530000000     0.844940000000     0.260110000000    -0.176362   
N71      N      0.005530000000     0.660250000000     0.255990000000    -0.190661   
N72      N      0.491210000000     0.595720000000     0.262790000000    -0.177941   
N73      N      0.424590000000     0.736180000000     0.004080000000    -0.190825   
N74      N      0.361290000000     0.754880000000     0.516670000000    -0.177695   
N75      N      0.111450000000     0.749430000000     0.005350000000    -0.191047   
N76      N      0.174600000000     0.763530000000     0.522720000000    -0.179313   
N77      N      0.268850000000     0.848650000000     0.024890000000    -0.19129    
N78      N      0.273190000000     0.914770000000     0.030490000000    -0.176544   
N79      N      0.269420000000     0.598160000000     0.008660000000    -0.190162   
N80      N      0.262750000000     0.664410000000     0.014940000000    -0.176999   
N81      N      0.249280000000     0.019120000000     0.866150000000    -0.196774   
N82      N      0.272740000000     0.996530000000     0.924600000000    -0.173501   
N83      N      0.265140000000     0.017780000000     0.679220000000    -0.187815   
N84      N      0.265870000000     0.011380000000     0.611600000000    -0.18231    
N85      N      0.504820000000     0.748400000000     0.850680000000    -0.189634   
N86      N      0.523310000000     0.725690000000     0.911390000000    -0.178613   
N87      N      0.018370000000     0.761450000000     0.595700000000    -0.190909   
N88      N      0.509440000000     0.752580000000     0.662250000000    -0.176568   
N89      N      0.093470000000     0.014360000000     0.758700000000    -0.195736   
N90      N      0.160600000000     0.513850000000     0.767790000000    -0.176332   
N91      N      0.406870000000     0.998580000000     0.756870000000    -0.187809   
N92      N      0.347550000000     0.519830000000     0.779380000000    -0.177301   
N93      N      0.006430000000     0.911560000000     0.754170000000    -0.189265   
N94      N      0.010530000000     0.844940000000     0.760110000000    -0.176362   
N95      N      0.005530000000     0.660250000000     0.755990000000    -0.190661   
N96      N      0.491210000000     0.595720000000     0.762790000000    -0.17794    
N97      N      0.924590000000     0.236180000000     0.504080000000    -0.190817   
N98      N      0.861290000000     0.254880000000     0.016670000000    -0.177759   
N99      N      0.611450000000     0.249420000000     0.505350000000    -0.191019   
N100     N      0.674600000000     0.263530000000     0.022720000000    -0.179296   
N101     N      0.768850000000     0.348650000000     0.524890000000    -0.191251   
N102     N      0.773190000000     0.414770000000     0.530490000000    -0.177316   
N103     N      0.769420000000     0.098160000000     0.508660000000    -0.189901   
N104     N      0.762740000000     0.164410000000     0.514940000000    -0.176972   
N105     N      0.749280000000     0.519120000000     0.366150000000    -0.192362   
N106     N      0.772750000000     0.496530000000     0.424600000000    -0.177855   
N107     N      0.765140000000     0.517780000000     0.179220000000    -0.190534   
N108     N      0.765880000000     0.511380000000     0.111600000000    -0.176911   
N109     N      0.004820000000     0.248400000000     0.350680000000    -0.189704   
N110     N      0.023310000000     0.225690000000     0.411390000000    -0.178787   
N111     N      0.518370000000     0.261450000000     0.095700000000    -0.19077    
N112     N      0.009440000000     0.252580000000     0.162250000000    -0.176635   
N113     N      0.593470000000     0.514360000000     0.258700000000    -0.190335   
N114     N      0.660600000000     0.013850000000     0.267790000000    -0.178525   
N115     N      0.906870000000     0.498590000000     0.256870000000    -0.191972   
N116     N      0.847550000000     0.019830000000     0.279380000000    -0.181695   
N117     N      0.506430000000     0.411560000000     0.254170000000    -0.189818   
N118     N      0.510530000000     0.344940000000     0.260110000000    -0.176343   
N119     N      0.505530000000     0.160250000000     0.255990000000    -0.19055    
N120     N      0.991210000000     0.095720000000     0.262790000000    -0.177659   
N121     N      0.924590000000     0.236180000000     0.004080000000    -0.190837   
N122     N      0.861290000000     0.254880000000     0.516670000000    -0.177722   
N123     N      0.611450000000     0.249420000000     0.005350000000    -0.191074   
N124     N      0.674600000000     0.263530000000     0.522720000000    -0.179327   
N125     N      0.768850000000     0.348650000000     0.024890000000    -0.19128    
N126     N      0.773190000000     0.414770000000     0.030490000000    -0.177326   
N127     N      0.769420000000     0.098160000000     0.008660000000    -0.189939   
N128     N      0.762740000000     0.164410000000     0.014940000000    -0.177006   
N129     N      0.749280000000     0.519120000000     0.866150000000    -0.192362   
N130     N      0.772750000000     0.496530000000     0.924600000000    -0.177848   
N131     N      0.765140000000     0.517780000000     0.679220000000    -0.190534   
N132     N      0.765880000000     0.511380000000     0.611600000000    -0.176912   
N133     N      0.004820000000     0.248400000000     0.850680000000    -0.189704   
N134     N      0.023310000000     0.225690000000     0.911390000000    -0.178784   
N135     N      0.518370000000     0.261450000000     0.595700000000    -0.190768   
N136     N      0.009440000000     0.252580000000     0.662250000000    -0.176635   
N137     N      0.593470000000     0.514360000000     0.758700000000    -0.190335   
N138     N      0.660600000000     0.013850000000     0.767790000000    -0.178525   
N139     N      0.906870000000     0.498590000000     0.756870000000    -0.191972   
N140     N      0.847550000000     0.019830000000     0.779380000000    -0.181695   
N141     N      0.506430000000     0.411560000000     0.754170000000    -0.189817   
N142     N      0.510530000000     0.344940000000     0.760110000000    -0.176343   
N143     N      0.505530000000     0.160250000000     0.755990000000    -0.19055    
N144     N      0.991210000000     0.095720000000     0.762790000000    -0.177659   
N145     N      0.924590000000     0.736180000000     0.504080000000    -0.190786   
N146     N      0.861290000000     0.754880000000     0.016670000000    -0.17773    
N147     N      0.611450000000     0.749430000000     0.505350000000    -0.190987   
N148     N      0.674600000000     0.763530000000     0.022720000000    -0.179283   
N149     N      0.768850000000     0.848650000000     0.524890000000    -0.191264   
N150     N      0.773190000000     0.914770000000     0.530490000000    -0.176518   
N151     N      0.769420000000     0.598160000000     0.508660000000    -0.190061   
N152     N      0.762740000000     0.664410000000     0.514940000000    -0.176955   
N153     N      0.749280000000     0.019120000000     0.366150000000    -0.196774   
N154     N      0.772750000000     0.996530000000     0.424600000000    -0.173503   
N155     N      0.765140000000     0.017780000000     0.179220000000    -0.187795   
N156     N      0.765880000000     0.011380000000     0.111600000000    -0.182249   
N157     N      0.004820000000     0.748400000000     0.350680000000    -0.189687   
N158     N      0.023310000000     0.725690000000     0.411390000000    -0.178722   
N159     N      0.518370000000     0.761450000000     0.095700000000    -0.190784   
N160     N      0.009440000000     0.752580000000     0.162250000000    -0.176615   
N161     N      0.593470000000     0.014360000000     0.258700000000    -0.195744   
N162     N      0.660600000000     0.513850000000     0.267790000000    -0.176319   
N163     N      0.906870000000     0.998580000000     0.256870000000    -0.187778   
N164     N      0.847550000000     0.519830000000     0.279380000000    -0.177314   
N165     N      0.506430000000     0.911560000000     0.254170000000    -0.18919    
N166     N      0.510530000000     0.844940000000     0.260110000000    -0.176287   
N167     N      0.505530000000     0.660250000000     0.255990000000    -0.190551   
N168     N      0.991210000000     0.595720000000     0.262790000000    -0.177779   
N169     N      0.924590000000     0.736180000000     0.004080000000    -0.190806   
N170     N      0.861290000000     0.754880000000     0.516670000000    -0.177694   
N171     N      0.611450000000     0.749430000000     0.005350000000    -0.191042   
N172     N      0.674600000000     0.763530000000     0.522720000000    -0.179314   
N173     N      0.768850000000     0.848650000000     0.024890000000    -0.191293   
N174     N      0.773190000000     0.914770000000     0.030490000000    -0.176529   
N175     N      0.769420000000     0.598160000000     0.008660000000    -0.190099   
N176     N      0.762740000000     0.664410000000     0.014940000000    -0.176988   
N177     N      0.749280000000     0.019120000000     0.866150000000    -0.196774   
N178     N      0.772750000000     0.996530000000     0.924600000000    -0.173496   
N179     N      0.765140000000     0.017780000000     0.679220000000    -0.187795   
N180     N      0.765880000000     0.011380000000     0.611600000000    -0.18225    
N181     N      0.004820000000     0.748400000000     0.850680000000    -0.189687   
N182     N      0.023310000000     0.725690000000     0.911390000000    -0.178719   
N183     N      0.518370000000     0.761450000000     0.595700000000    -0.190781   
N184     N      0.009440000000     0.752580000000     0.662250000000    -0.176615   
N185     N      0.593470000000     0.014360000000     0.758700000000    -0.195743   
N186     N      0.660600000000     0.513850000000     0.767790000000    -0.176319   
N187     N      0.906870000000     0.998580000000     0.756870000000    -0.187778   
N188     N      0.847550000000     0.519830000000     0.779380000000    -0.177314   
N189     N      0.506430000000     0.911560000000     0.754170000000    -0.18919    
N190     N      0.510530000000     0.844940000000     0.760110000000    -0.176287   
N191     N      0.505530000000     0.660250000000     0.755990000000    -0.190552   
N192     N      0.991210000000     0.595720000000     0.762790000000    -0.177778   
O1       O      0.995940000000     0.049970000000     0.233160000000    -0.553123   
O2       O      0.504720000000     0.460090000000     0.228990000000    -0.556643   
O3       O      0.454970000000     0.001960000000     0.230550000000    -0.56678    
O4       O      0.046070000000     0.508650000000     0.231330000000    -0.558182   
O5       O      0.045740000000     0.007240000000     0.285350000000    -0.556331   
O6       O      0.454670000000     0.498320000000     0.284410000000    -0.559052   
O7       O      0.003660000000     0.457700000000     0.282930000000    -0.559427   
O8       O      0.496520000000     0.047330000000     0.287090000000    -0.558871   
O9       O      0.480030000000     0.208200000000     0.250980000000    -0.552807   
O10      O      0.482060000000     0.298170000000     0.260660000000    -0.55016    
O11      O      0.482110000000     0.257820000000     0.210040000000    -0.553692   
O12      O      0.479320000000     0.248340000000     0.301290000000    -0.557672   
O13      O      0.032580000000     0.253940000000     0.303000000000    -0.556962   
O14      O      0.035090000000     0.249240000000     0.211250000000    -0.55458    
O15      O      0.035400000000     0.296780000000     0.254600000000    -0.557865   
O16      O      0.033020000000     0.207030000000     0.259710000000    -0.563358   
O17      O      0.299950000000     0.492790000000     0.280320000000    -0.559436   
O18      O      0.209960000000     0.489820000000     0.265640000000    -0.557582   
O19      O      0.262560000000     0.491200000000     0.227580000000    -0.55774    
O20      O      0.247790000000     0.491960000000     0.318190000000    -0.559429   
O21      O      0.254150000000     0.044570000000     0.317800000000    -0.557321   
O22      O      0.253250000000     0.043380000000     0.226330000000    -0.555715   
O23      O      0.207610000000     0.042290000000     0.272720000000    -0.548533   
O24      O      0.299280000000     0.045080000000     0.271490000000    -0.549064   
O25      O      0.241840000000     0.013830000000     0.062010000000    -0.557004   
O26      O      0.245170000000     0.497000000000     0.472250000000    -0.560864   
O27      O      0.244660000000     0.461280000000     0.025920000000    -0.553454   
O28      O      0.243080000000     0.050090000000     0.508400000000    -0.551714   
O29      O      0.295930000000     0.051630000000     0.017770000000    -0.561831   
O30      O      0.298030000000     0.461990000000     0.519970000000    -0.562457   
O31      O      0.298140000000     0.005900000000     0.472820000000    -0.563952   
O32      O      0.295090000000     0.507440000000     0.064700000000    -0.555698   
O33      O      0.521610000000     0.226310000000     0.053800000000    -0.558223   
O34      O      0.018380000000     0.208370000000     0.463640000000    -0.552002   
O35      O      0.065320000000     0.220080000000     0.007690000000    -0.56158    
O36      O      0.474520000000     0.214340000000     0.511190000000    -0.564206   
O37      O      0.470660000000     0.264750000000     0.995120000000    -0.557272   
O38      O      0.061630000000     0.272460000000     0.500440000000    -0.559404   
O39      O      0.520370000000     0.260440000000     0.453350000000    -0.561083   
O40      O      0.012540000000     0.277470000000     0.043030000000    -0.559091   
O41      O      0.268760000000     0.210180000000     0.043730000000    -0.563287   
O42      O      0.267680000000     0.299910000000     0.049160000000    -0.561088   
O43      O      0.222740000000     0.254410000000     0.047640000000    -0.560779   
O44      O      0.314040000000     0.254640000000     0.045120000000    -0.558546   
O45      O      0.312450000000     0.255580000000     0.491150000000    -0.558549   
O46      O      0.221640000000     0.262930000000     0.494340000000    -0.560952   
O47      O      0.270900000000     0.303160000000     0.495320000000    -0.561447   
O48      O      0.262640000000     0.213420000000     0.490230000000    -0.553327   
O49      O      0.995940000000     0.049970000000     0.733160000000    -0.553122   
O50      O      0.504720000000     0.460090000000     0.728990000000    -0.556643   
O51      O      0.454970000000     0.001960000000     0.730550000000    -0.56678    
O52      O      0.046070000000     0.508650000000     0.731330000000    -0.558181   
O53      O      0.045740000000     0.007240000000     0.785350000000    -0.55633    
O54      O      0.454670000000     0.498320000000     0.784410000000    -0.559051   
O55      O      0.003660000000     0.457700000000     0.782930000000    -0.559426   
O56      O      0.496520000000     0.047330000000     0.787090000000    -0.55887    
O57      O      0.480030000000     0.208200000000     0.750980000000    -0.552807   
O58      O      0.482060000000     0.298170000000     0.760660000000    -0.55016    
O59      O      0.482110000000     0.257820000000     0.710040000000    -0.553692   
O60      O      0.479320000000     0.248340000000     0.801290000000    -0.557671   
O61      O      0.032580000000     0.253940000000     0.803000000000    -0.556962   
O62      O      0.035090000000     0.249240000000     0.711250000000    -0.55458    
O63      O      0.035400000000     0.296780000000     0.754600000000    -0.557865   
O64      O      0.033020000000     0.207030000000     0.759710000000    -0.563358   
O65      O      0.299950000000     0.492790000000     0.780320000000    -0.559435   
O66      O      0.209960000000     0.489820000000     0.765640000000    -0.557582   
O67      O      0.262560000000     0.491200000000     0.727580000000    -0.55774    
O68      O      0.247790000000     0.491960000000     0.818190000000    -0.559429   
O69      O      0.254150000000     0.044570000000     0.817800000000    -0.557321   
O70      O      0.253250000000     0.043380000000     0.726330000000    -0.555715   
O71      O      0.207610000000     0.042290000000     0.772720000000    -0.548533   
O72      O      0.299280000000     0.045080000000     0.771490000000    -0.549064   
O73      O      0.241840000000     0.013830000000     0.562010000000    -0.557019   
O74      O      0.245170000000     0.497000000000     0.972250000000    -0.560797   
O75      O      0.244660000000     0.461280000000     0.525920000000    -0.553454   
O76      O      0.243080000000     0.050090000000     0.008400000000    -0.551731   
O77      O      0.295930000000     0.051630000000     0.517770000000    -0.56183    
O78      O      0.298030000000     0.461990000000     0.019970000000    -0.562461   
O79      O      0.298140000000     0.005900000000     0.972820000000    -0.563882   
O80      O      0.295090000000     0.507440000000     0.564700000000    -0.555713   
O81      O      0.521610000000     0.226310000000     0.553800000000    -0.558248   
O82      O      0.018380000000     0.208370000000     0.963640000000    -0.551926   
O83      O      0.065320000000     0.220080000000     0.507690000000    -0.561585   
O84      O      0.474520000000     0.214340000000     0.011190000000    -0.564174   
O85      O      0.470660000000     0.264750000000     0.495120000000    -0.55732    
O86      O      0.061630000000     0.272460000000     0.000440000000    -0.559503   
O87      O      0.520370000000     0.260440000000     0.953350000000    -0.56111    
O88      O      0.012540000000     0.277470000000     0.543030000000    -0.559016   
O89      O      0.268760000000     0.210180000000     0.543730000000    -0.563302   
O90      O      0.267680000000     0.299910000000     0.549170000000    -0.560912   
O91      O      0.222740000000     0.254410000000     0.547640000000    -0.560802   
O92      O      0.314040000000     0.254640000000     0.545120000000    -0.558563   
O93      O      0.312450000000     0.255580000000     0.991150000000    -0.558483   
O94      O      0.221640000000     0.262930000000     0.994340000000    -0.560876   
O95      O      0.270900000000     0.303160000000     0.995320000000    -0.561447   
O96      O      0.262640000000     0.213420000000     0.990230000000    -0.553262   
O97      O      0.995940000000     0.549970000000     0.233160000000    -0.554547   
O98      O      0.504720000000     0.960090000000     0.228990000000    -0.549829   
O99      O      0.454970000000     0.501960000000     0.230550000000    -0.55863    
O100     O      0.046070000000     0.008650000000     0.231330000000    -0.559593   
O101     O      0.045740000000     0.507230000000     0.285350000000    -0.557208   
O102     O      0.454670000000     0.998320000000     0.284410000000    -0.552365   
O103     O      0.003660000000     0.957700000000     0.282930000000    -0.55128    
O104     O      0.496520000000     0.547330000000     0.287090000000    -0.561276   
O105     O      0.480030000000     0.708200000000     0.250980000000    -0.552817   
O106     O      0.482060000000     0.798170000000     0.260660000000    -0.550147   
O107     O      0.482110000000     0.757820000000     0.210040000000    -0.553678   
O108     O      0.479320000000     0.748340000000     0.301290000000    -0.557668   
O109     O      0.032580000000     0.753940000000     0.303000000000    -0.556911   
O110     O      0.035090000000     0.749240000000     0.211250000000    -0.554525   
O111     O      0.035400000000     0.796790000000     0.254600000000    -0.55769    
O112     O      0.033020000000     0.707030000000     0.259710000000    -0.563312   
O113     O      0.299950000000     0.992790000000     0.280320000000    -0.551546   
O114     O      0.209960000000     0.989820000000     0.265640000000    -0.549433   
O115     O      0.262560000000     0.991200000000     0.227580000000    -0.549029   
O116     O      0.247790000000     0.991960000000     0.318190000000    -0.551686   
O117     O      0.254150000000     0.544570000000     0.317800000000    -0.560655   
O118     O      0.253250000000     0.543380000000     0.226330000000    -0.559437   
O119     O      0.207610000000     0.542290000000     0.272720000000    -0.551797   
O120     O      0.299280000000     0.545080000000     0.271490000000    -0.552391   
O121     O      0.241840000000     0.513830000000     0.062010000000    -0.558491   
O122     O      0.245170000000     0.997000000000     0.472250000000    -0.554317   
O123     O      0.244660000000     0.961280000000     0.025920000000    -0.545111   
O124     O      0.243080000000     0.550090000000     0.508400000000    -0.553968   
O125     O      0.295930000000     0.551630000000     0.017770000000    -0.563166   
O126     O      0.298030000000     0.961990000000     0.519970000000    -0.555365   
O127     O      0.298140000000     0.505900000000     0.472820000000    -0.556201   
O128     O      0.295090000000     0.007440000000     0.064700000000    -0.557676   
O129     O      0.521610000000     0.726310000000     0.053800000000    -0.558191   
O130     O      0.018380000000     0.708370000000     0.463640000000    -0.55174    
O131     O      0.065320000000     0.720080000000     0.007690000000    -0.561455   
O132     O      0.474520000000     0.714340000000     0.511190000000    -0.564086   
O133     O      0.470660000000     0.764750000000     0.995120000000    -0.557169   
O134     O      0.061630000000     0.772460000000     0.500440000000    -0.559262   
O135     O      0.520370000000     0.760440000000     0.453350000000    -0.56116    
O136     O      0.012540000000     0.777460000000     0.043030000000    -0.559105   
O137     O      0.268760000000     0.710180000000     0.043730000000    -0.563291   
O138     O      0.267680000000     0.799910000000     0.049160000000    -0.561043   
O139     O      0.222740000000     0.754410000000     0.047640000000    -0.560772   
O140     O      0.314040000000     0.754640000000     0.045120000000    -0.558518   
O141     O      0.312450000000     0.755580000000     0.491150000000    -0.558533   
O142     O      0.221640000000     0.762930000000     0.494340000000    -0.560944   
O143     O      0.270900000000     0.803160000000     0.495320000000    -0.561395   
O144     O      0.262640000000     0.713420000000     0.490230000000    -0.553336   
O145     O      0.995940000000     0.549970000000     0.733160000000    -0.554547   
O146     O      0.504720000000     0.960090000000     0.728990000000    -0.549829   
O147     O      0.454970000000     0.501960000000     0.730550000000    -0.55863    
O148     O      0.046070000000     0.008650000000     0.731330000000    -0.559593   
O149     O      0.045740000000     0.507230000000     0.785350000000    -0.557207   
O150     O      0.454670000000     0.998320000000     0.784410000000    -0.552364   
O151     O      0.003660000000     0.957700000000     0.782930000000    -0.551279   
O152     O      0.496520000000     0.547330000000     0.787090000000    -0.561275   
O153     O      0.480030000000     0.708200000000     0.750980000000    -0.552817   
O154     O      0.482060000000     0.798170000000     0.760660000000    -0.550147   
O155     O      0.482110000000     0.757820000000     0.710040000000    -0.553679   
O156     O      0.479320000000     0.748340000000     0.801290000000    -0.557668   
O157     O      0.032580000000     0.753940000000     0.803000000000    -0.556911   
O158     O      0.035090000000     0.749240000000     0.711250000000    -0.554525   
O159     O      0.035400000000     0.796790000000     0.754600000000    -0.55769    
O160     O      0.033020000000     0.707030000000     0.759710000000    -0.563312   
O161     O      0.299950000000     0.992790000000     0.780320000000    -0.551546   
O162     O      0.209960000000     0.989820000000     0.765640000000    -0.549434   
O163     O      0.262560000000     0.991200000000     0.727580000000    -0.549029   
O164     O      0.247790000000     0.991960000000     0.818190000000    -0.551686   
O165     O      0.254150000000     0.544570000000     0.817800000000    -0.560655   
O166     O      0.253250000000     0.543380000000     0.726330000000    -0.559437   
O167     O      0.207610000000     0.542290000000     0.772720000000    -0.551797   
O168     O      0.299280000000     0.545080000000     0.771490000000    -0.552391   
O169     O      0.241840000000     0.513830000000     0.562010000000    -0.558507   
O170     O      0.245170000000     0.997000000000     0.972250000000    -0.55425    
O171     O      0.244660000000     0.961280000000     0.525920000000    -0.54511    
O172     O      0.243080000000     0.550090000000     0.008400000000    -0.553985   
O173     O      0.295930000000     0.551630000000     0.517770000000    -0.563165   
O174     O      0.298030000000     0.961990000000     0.019970000000    -0.555368   
O175     O      0.298140000000     0.505900000000     0.972820000000    -0.556132   
O176     O      0.295090000000     0.007440000000     0.564700000000    -0.557691   
O177     O      0.521610000000     0.726310000000     0.553800000000    -0.558217   
O178     O      0.018380000000     0.708370000000     0.963640000000    -0.551664   
O179     O      0.065320000000     0.720080000000     0.507690000000    -0.561461   
O180     O      0.474520000000     0.714340000000     0.011190000000    -0.564054   
O181     O      0.470660000000     0.764750000000     0.495120000000    -0.557217   
O182     O      0.061630000000     0.772460000000     0.000440000000    -0.559361   
O183     O      0.520370000000     0.760440000000     0.953350000000    -0.561187   
O184     O      0.012540000000     0.777460000000     0.543030000000    -0.559029   
O185     O      0.268760000000     0.710180000000     0.543730000000    -0.563305   
O186     O      0.267680000000     0.799910000000     0.549170000000    -0.560868   
O187     O      0.222740000000     0.754410000000     0.547640000000    -0.560795   
O188     O      0.314040000000     0.754640000000     0.545120000000    -0.558535   
O189     O      0.312450000000     0.755580000000     0.991150000000    -0.558467   
O190     O      0.221640000000     0.762930000000     0.994340000000    -0.560869   
O191     O      0.270900000000     0.803160000000     0.995320000000    -0.561396   
O192     O      0.262640000000     0.713420000000     0.990230000000    -0.553271   
O193     O      0.495940000000     0.049970000000     0.233160000000    -0.553288   
O194     O      0.004720000000     0.460090000000     0.228990000000    -0.556655   
O195     O      0.954970000000     0.001960000000     0.230550000000    -0.566658   
O196     O      0.546080000000     0.508650000000     0.231330000000    -0.558103   
O197     O      0.545740000000     0.007240000000     0.285350000000    -0.556417   
O198     O      0.954670000000     0.498320000000     0.284410000000    -0.558876   
O199     O      0.503660000000     0.457700000000     0.282930000000    -0.559447   
O200     O      0.996520000000     0.047330000000     0.287090000000    -0.558641   
O201     O      0.980030000000     0.208200000000     0.250980000000    -0.552638   
O202     O      0.982060000000     0.298170000000     0.260660000000    -0.549985   
O203     O      0.982110000000     0.257820000000     0.210040000000    -0.553516   
O204     O      0.979320000000     0.248340000000     0.301290000000    -0.557498   
O205     O      0.532580000000     0.253940000000     0.303000000000    -0.557037   
O206     O      0.535090000000     0.249240000000     0.211250000000    -0.554653   
O207     O      0.535400000000     0.296780000000     0.254600000000    -0.557938   
O208     O      0.533020000000     0.207030000000     0.259710000000    -0.563431   
O209     O      0.799950000000     0.492790000000     0.280320000000    -0.559619   
O210     O      0.709960000000     0.489820000000     0.265640000000    -0.557399   
O211     O      0.762560000000     0.491200000000     0.227580000000    -0.557743   
O212     O      0.747790000000     0.491960000000     0.318190000000    -0.5594     
O213     O      0.754150000000     0.044570000000     0.317800000000    -0.557323   
O214     O      0.753240000000     0.043380000000     0.226330000000    -0.555699   
O215     O      0.707610000000     0.042290000000     0.272720000000    -0.548339   
O216     O      0.799280000000     0.045080000000     0.271490000000    -0.549257   
O217     O      0.741840000000     0.013830000000     0.062010000000    -0.556926   
O218     O      0.745170000000     0.497000000000     0.472250000000    -0.560854   
O219     O      0.744660000000     0.461280000000     0.025920000000    -0.55344    
O220     O      0.743080000000     0.050090000000     0.508400000000    -0.55163    
O221     O      0.795940000000     0.051630000000     0.017770000000    -0.561625   
O222     O      0.798030000000     0.461990000000     0.519970000000    -0.562434   
O223     O      0.798140000000     0.005900000000     0.472820000000    -0.563923   
O224     O      0.795100000000     0.507440000000     0.064700000000    -0.555493   
O225     O      0.021600000000     0.226310000000     0.053800000000    -0.558285   
O226     O      0.518380000000     0.208370000000     0.463640000000    -0.551964   
O227     O      0.565320000000     0.220080000000     0.007690000000    -0.561559   
O228     O      0.974520000000     0.214340000000     0.511190000000    -0.564033   
O229     O      0.970660000000     0.264750000000     0.995120000000    -0.557055   
O230     O      0.561620000000     0.272460000000     0.500440000000    -0.55955    
O231     O      0.020370000000     0.260440000000     0.453350000000    -0.561052   
O232     O      0.512540000000     0.277470000000     0.043030000000    -0.559071   
O233     O      0.768770000000     0.210180000000     0.043730000000    -0.563255   
O234     O      0.767680000000     0.299910000000     0.049160000000    -0.561086   
O235     O      0.722740000000     0.254410000000     0.047640000000    -0.560793   
O236     O      0.814040000000     0.254640000000     0.045120000000    -0.558529   
O237     O      0.812450000000     0.255580000000     0.491150000000    -0.558544   
O238     O      0.721640000000     0.262930000000     0.494340000000    -0.560956   
O239     O      0.770900000000     0.303160000000     0.495320000000    -0.561446   
O240     O      0.762640000000     0.213420000000     0.490230000000    -0.553314   
O241     O      0.495940000000     0.049970000000     0.733160000000    -0.553287   
O242     O      0.004720000000     0.460090000000     0.728990000000    -0.556654   
O243     O      0.954970000000     0.001960000000     0.730550000000    -0.566657   
O244     O      0.546080000000     0.508650000000     0.731330000000    -0.558103   
O245     O      0.545740000000     0.007240000000     0.785350000000    -0.556416   
O246     O      0.954670000000     0.498320000000     0.784410000000    -0.558875   
O247     O      0.503660000000     0.457700000000     0.782930000000    -0.559446   
O248     O      0.996520000000     0.047330000000     0.787090000000    -0.55864    
O249     O      0.980030000000     0.208200000000     0.750980000000    -0.552639   
O250     O      0.982060000000     0.298170000000     0.760660000000    -0.549985   
O251     O      0.982110000000     0.257820000000     0.710040000000    -0.553516   
O252     O      0.979320000000     0.248340000000     0.801290000000    -0.557498   
O253     O      0.532580000000     0.253940000000     0.803000000000    -0.557037   
O254     O      0.535090000000     0.249240000000     0.711250000000    -0.554653   
O255     O      0.535400000000     0.296780000000     0.754600000000    -0.557938   
O256     O      0.533020000000     0.207030000000     0.759710000000    -0.563431   
O257     O      0.799950000000     0.492790000000     0.780320000000    -0.559619   
O258     O      0.709960000000     0.489820000000     0.765640000000    -0.557399   
O259     O      0.762560000000     0.491200000000     0.727580000000    -0.557744   
O260     O      0.747790000000     0.491960000000     0.818190000000    -0.5594     
O261     O      0.754150000000     0.044570000000     0.817800000000    -0.557322   
O262     O      0.753240000000     0.043380000000     0.726330000000    -0.5557     
O263     O      0.707610000000     0.042290000000     0.772720000000    -0.548339   
O264     O      0.799280000000     0.045080000000     0.771490000000    -0.549257   
O265     O      0.741840000000     0.013830000000     0.562010000000    -0.556941   
O266     O      0.745170000000     0.497000000000     0.972250000000    -0.560786   
O267     O      0.744660000000     0.461280000000     0.525920000000    -0.55344    
O268     O      0.743080000000     0.050090000000     0.008400000000    -0.551647   
O269     O      0.795940000000     0.051630000000     0.517770000000    -0.561625   
O270     O      0.798030000000     0.461990000000     0.019970000000    -0.562437   
O271     O      0.798140000000     0.005900000000     0.972820000000    -0.563853   
O272     O      0.795100000000     0.507440000000     0.564700000000    -0.555508   
O273     O      0.021600000000     0.226310000000     0.553800000000    -0.55831    
O274     O      0.518380000000     0.208370000000     0.963640000000    -0.551888   
O275     O      0.565320000000     0.220080000000     0.507690000000    -0.561565   
O276     O      0.974520000000     0.214340000000     0.011190000000    -0.564001   
O277     O      0.970660000000     0.264750000000     0.495120000000    -0.557102   
O278     O      0.561620000000     0.272460000000     0.000440000000    -0.559649   
O279     O      0.020370000000     0.260440000000     0.953350000000    -0.56108    
O280     O      0.512540000000     0.277470000000     0.543030000000    -0.558996   
O281     O      0.768770000000     0.210180000000     0.543730000000    -0.56327    
O282     O      0.767680000000     0.299910000000     0.549170000000    -0.560911   
O283     O      0.722740000000     0.254410000000     0.547640000000    -0.560816   
O284     O      0.814040000000     0.254640000000     0.545120000000    -0.558546   
O285     O      0.812450000000     0.255580000000     0.991150000000    -0.558478   
O286     O      0.721640000000     0.262930000000     0.994340000000    -0.56088    
O287     O      0.770900000000     0.303160000000     0.995320000000    -0.561447   
O288     O      0.762640000000     0.213420000000     0.990230000000    -0.553249   
O289     O      0.495940000000     0.549970000000     0.233160000000    -0.554713   
O290     O      0.004720000000     0.960090000000     0.228990000000    -0.549841   
O291     O      0.954970000000     0.501960000000     0.230550000000    -0.558509   
O292     O      0.546080000000     0.008650000000     0.231330000000    -0.559516   
O293     O      0.545740000000     0.507230000000     0.285350000000    -0.557294   
O294     O      0.954670000000     0.998320000000     0.284410000000    -0.55219    
O295     O      0.503660000000     0.957700000000     0.282930000000    -0.5513     
O296     O      0.996520000000     0.547330000000     0.287090000000    -0.561046   
O297     O      0.980030000000     0.708200000000     0.250980000000    -0.552648   
O298     O      0.982060000000     0.798170000000     0.260660000000    -0.549973   
O299     O      0.982110000000     0.757820000000     0.210040000000    -0.553503   
O300     O      0.979320000000     0.748340000000     0.301290000000    -0.557495   
O301     O      0.532580000000     0.753940000000     0.303000000000    -0.556985   
O302     O      0.535090000000     0.749240000000     0.211250000000    -0.554598   
O303     O      0.535400000000     0.796790000000     0.254600000000    -0.557763   
O304     O      0.533020000000     0.707030000000     0.259710000000    -0.563385   
O305     O      0.799950000000     0.992790000000     0.280320000000    -0.551731   
O306     O      0.709960000000     0.989820000000     0.265640000000    -0.549249   
O307     O      0.762560000000     0.991200000000     0.227580000000    -0.549033   
O308     O      0.747790000000     0.991960000000     0.318190000000    -0.551657   
O309     O      0.754150000000     0.544570000000     0.317800000000    -0.560656   
O310     O      0.753240000000     0.543380000000     0.226330000000    -0.559421   
O311     O      0.707610000000     0.542290000000     0.272720000000    -0.551602   
O312     O      0.799280000000     0.545080000000     0.271490000000    -0.552585   
O313     O      0.741840000000     0.513830000000     0.062010000000    -0.558413   
O314     O      0.745170000000     0.997000000000     0.472250000000    -0.554307   
O315     O      0.744660000000     0.961280000000     0.025920000000    -0.545098   
O316     O      0.743080000000     0.550090000000     0.508400000000    -0.553884   
O317     O      0.795940000000     0.551630000000     0.017770000000    -0.56296    
O318     O      0.798030000000     0.961990000000     0.519970000000    -0.555343   
O319     O      0.798140000000     0.505900000000     0.472820000000    -0.556173   
O320     O      0.795100000000     0.007440000000     0.064700000000    -0.557471   
O321     O      0.021600000000     0.726310000000     0.053800000000    -0.558254   
O322     O      0.518380000000     0.708370000000     0.463640000000    -0.551702   
O323     O      0.565320000000     0.720080000000     0.007690000000    -0.561435   
O324     O      0.974520000000     0.714340000000     0.511190000000    -0.563913   
O325     O      0.970660000000     0.764750000000     0.995120000000    -0.556952   
O326     O      0.561620000000     0.772460000000     0.500440000000    -0.559408   
O327     O      0.020370000000     0.760440000000     0.453350000000    -0.561129   
O328     O      0.512540000000     0.777460000000     0.043030000000    -0.559085   
O329     O      0.768770000000     0.710180000000     0.043730000000    -0.563259   
O330     O      0.767680000000     0.799910000000     0.049160000000    -0.561042   
O331     O      0.722740000000     0.754410000000     0.047640000000    -0.560786   
O332     O      0.814040000000     0.754640000000     0.045120000000    -0.558501   
O333     O      0.812450000000     0.755580000000     0.491150000000    -0.558528   
O334     O      0.721640000000     0.762930000000     0.494340000000    -0.560948   
O335     O      0.770900000000     0.803160000000     0.495320000000    -0.561394   
O336     O      0.762640000000     0.713420000000     0.490230000000    -0.553322   
O337     O      0.495940000000     0.549970000000     0.733160000000    -0.554712   
O338     O      0.004720000000     0.960090000000     0.728990000000    -0.54984    
O339     O      0.954970000000     0.501960000000     0.730550000000    -0.558508   
O340     O      0.546080000000     0.008650000000     0.731330000000    -0.559515   
O341     O      0.545740000000     0.507230000000     0.785350000000    -0.557293   
O342     O      0.954670000000     0.998320000000     0.784410000000    -0.55219    
O343     O      0.503660000000     0.957700000000     0.782930000000    -0.551299   
O344     O      0.996520000000     0.547330000000     0.787090000000    -0.561045   
O345     O      0.980030000000     0.708200000000     0.750980000000    -0.552648   
O346     O      0.982060000000     0.798170000000     0.760660000000    -0.549973   
O347     O      0.982110000000     0.757820000000     0.710040000000    -0.553503   
O348     O      0.979320000000     0.748340000000     0.801290000000    -0.557495   
O349     O      0.532580000000     0.753940000000     0.803000000000    -0.556985   
O350     O      0.535090000000     0.749240000000     0.711250000000    -0.554598   
O351     O      0.535400000000     0.796790000000     0.754600000000    -0.557763   
O352     O      0.533020000000     0.707030000000     0.759710000000    -0.563385   
O353     O      0.799950000000     0.992790000000     0.780320000000    -0.551731   
O354     O      0.709960000000     0.989820000000     0.765640000000    -0.54925    
O355     O      0.762560000000     0.991200000000     0.727580000000    -0.549034   
O356     O      0.747790000000     0.991960000000     0.818190000000    -0.551657   
O357     O      0.754150000000     0.544570000000     0.817800000000    -0.560656   
O358     O      0.753240000000     0.543380000000     0.726330000000    -0.559421   
O359     O      0.707610000000     0.542290000000     0.772720000000    -0.551602   
O360     O      0.799280000000     0.545080000000     0.771490000000    -0.552585   
O361     O      0.741840000000     0.513830000000     0.562010000000    -0.558428   
O362     O      0.745170000000     0.997000000000     0.972250000000    -0.55424    
O363     O      0.744660000000     0.961280000000     0.525920000000    -0.545097   
O364     O      0.743080000000     0.550090000000     0.008400000000    -0.5539     
O365     O      0.795940000000     0.551630000000     0.517770000000    -0.562959   
O366     O      0.798030000000     0.961990000000     0.019970000000    -0.555346   
O367     O      0.798140000000     0.505900000000     0.972820000000    -0.556103   
O368     O      0.795100000000     0.007440000000     0.564700000000    -0.557487   
O369     O      0.021600000000     0.726310000000     0.553800000000    -0.558279   
O370     O      0.518380000000     0.708370000000     0.963640000000    -0.551626   
O371     O      0.565320000000     0.720080000000     0.507690000000    -0.561441   
O372     O      0.974520000000     0.714340000000     0.011190000000    -0.563882   
O373     O      0.970660000000     0.764750000000     0.495120000000    -0.556999   
O374     O      0.561620000000     0.772460000000     0.000440000000    -0.559507   
O375     O      0.020370000000     0.760440000000     0.953350000000    -0.561156   
O376     O      0.512540000000     0.777460000000     0.543030000000    -0.55901    
O377     O      0.768770000000     0.710180000000     0.543730000000    -0.563273   
O378     O      0.767680000000     0.799910000000     0.549170000000    -0.560866   
O379     O      0.722740000000     0.754410000000     0.547640000000    -0.560809   
O380     O      0.814040000000     0.754640000000     0.545120000000    -0.558518   
O381     O      0.812450000000     0.755580000000     0.991150000000    -0.558462   
O382     O      0.721640000000     0.762930000000     0.994340000000    -0.560873   
O383     O      0.770900000000     0.803160000000     0.995320000000    -0.561395   
O384     O      0.762640000000     0.713420000000     0.990230000000    -0.553257   
V1       V      0.500500000000     0.005180000000     0.228830000000     1.37293    
V2       V      0.500190000000     0.502470000000     0.287090000000     1.387      
V3       V      0.478590000000     0.253250000000     0.255630000000     1.36819    
V4       V      0.036280000000     0.251780000000     0.257170000000     1.38764    
V5       V      0.255060000000     0.489180000000     0.272910000000     1.38251    
V6       V      0.253400000000     0.046110000000     0.272040000000     1.36827    
V7       V      0.241390000000     0.505560000000     0.017020000000     1.37865    
V8       V      0.299090000000     0.506850000000     0.518850000000     1.39376    
V9       V      0.020050000000     0.215100000000     0.009380000000     1.38659    
V10      V      0.016030000000     0.270930000000     0.497600000000     1.38208    
V11      V      0.268430000000     0.254720000000     0.048610000000     1.3949     
V12      V      0.266890000000     0.258680000000     0.490520000000     1.388      
V13      V      0.500500000000     0.005180000000     0.728830000000     1.37293    
V14      V      0.500190000000     0.502470000000     0.787090000000     1.38701    
V15      V      0.478590000000     0.253250000000     0.755630000000     1.36819    
V16      V      0.036280000000     0.251780000000     0.757170000000     1.38764    
V17      V      0.255060000000     0.489180000000     0.772910000000     1.38251    
V18      V      0.253400000000     0.046110000000     0.772040000000     1.36827    
V19      V      0.241390000000     0.505560000000     0.517020000000     1.37875    
V20      V      0.299090000000     0.506850000000     0.018850000000     1.39368    
V21      V      0.020050000000     0.215100000000     0.509380000000     1.38682    
V22      V      0.016030000000     0.270930000000     0.997600000000     1.38238    
V23      V      0.268430000000     0.254720000000     0.548610000000     1.39493    
V24      V      0.266890000000     0.258680000000     0.990520000000     1.38809    
V25      V      0.500500000000     0.505190000000     0.228830000000     1.38023    
V26      V      0.500190000000     0.002470000000     0.287090000000     1.36683    
V27      V      0.478590000000     0.753250000000     0.255630000000     1.36822    
V28      V      0.036280000000     0.751780000000     0.257170000000     1.38728    
V29      V      0.255060000000     0.989180000000     0.272910000000     1.38859    
V30      V      0.253400000000     0.546110000000     0.272040000000     1.38091    
V31      V      0.241390000000     0.005560000000     0.017020000000     1.35889    
V32      V      0.299090000000     0.006850000000     0.518850000000     1.38627    
V33      V      0.020050000000     0.715100000000     0.009380000000     1.38653    
V34      V      0.016030000000     0.770920000000     0.497600000000     1.38257    
V35      V      0.268430000000     0.754720000000     0.048610000000     1.39485    
V36      V      0.266890000000     0.758680000000     0.490520000000     1.38796    
V37      V      0.500500000000     0.505190000000     0.728830000000     1.38023    
V38      V      0.500190000000     0.002470000000     0.787090000000     1.36684    
V39      V      0.478590000000     0.753250000000     0.755630000000     1.36822    
V40      V      0.036280000000     0.751780000000     0.757170000000     1.38728    
V41      V      0.255060000000     0.989180000000     0.772910000000     1.38859    
V42      V      0.253400000000     0.546110000000     0.772040000000     1.38091    
V43      V      0.241390000000     0.005560000000     0.517020000000     1.35898    
V44      V      0.299090000000     0.006850000000     0.018850000000     1.38619    
V45      V      0.020050000000     0.715100000000     0.509380000000     1.38676    
V46      V      0.016030000000     0.770920000000     0.997600000000     1.38286    
V47      V      0.268430000000     0.754720000000     0.548610000000     1.39489    
V48      V      0.266890000000     0.758680000000     0.990520000000     1.38805    
V49      V      0.000500000000     0.005180000000     0.228830000000     1.37284    
V50      V      0.000190000000     0.502470000000     0.287090000000     1.38652    
V51      V      0.978590000000     0.253250000000     0.255630000000     1.36832    
V52      V      0.536280000000     0.251780000000     0.257170000000     1.38791    
V53      V      0.755070000000     0.489180000000     0.272910000000     1.38249    
V54      V      0.753410000000     0.046110000000     0.272040000000     1.36827    
V55      V      0.741390000000     0.505560000000     0.017020000000     1.37857    
V56      V      0.799090000000     0.506850000000     0.518850000000     1.39369    
V57      V      0.520050000000     0.215100000000     0.009380000000     1.38671    
V58      V      0.516030000000     0.270930000000     0.497600000000     1.38261    
V59      V      0.768430000000     0.254720000000     0.048610000000     1.39488    
V60      V      0.766890000000     0.258680000000     0.490520000000     1.388      
V61      V      0.000500000000     0.005180000000     0.728830000000     1.37284    
V62      V      0.000190000000     0.502470000000     0.787090000000     1.38653    
V63      V      0.978590000000     0.253250000000     0.755630000000     1.36832    
V64      V      0.536280000000     0.251780000000     0.757170000000     1.38791    
V65      V      0.755070000000     0.489180000000     0.772910000000     1.38249    
V66      V      0.753410000000     0.046110000000     0.772040000000     1.36827    
V67      V      0.741390000000     0.505560000000     0.517020000000     1.37867    
V68      V      0.799090000000     0.506850000000     0.018850000000     1.3936     
V69      V      0.520050000000     0.215100000000     0.509380000000     1.38694    
V70      V      0.516030000000     0.270930000000     0.997600000000     1.38291    
V71      V      0.768430000000     0.254720000000     0.548610000000     1.39492    
V72      V      0.766890000000     0.258680000000     0.990520000000     1.38808    
V73      V      0.000500000000     0.505190000000     0.228830000000     1.38014    
V74      V      0.000190000000     0.002470000000     0.287090000000     1.36635    
V75      V      0.978590000000     0.753250000000     0.255630000000     1.36835    
V76      V      0.536280000000     0.751780000000     0.257170000000     1.38755    
V77      V      0.755070000000     0.989180000000     0.272910000000     1.38857    
V78      V      0.753410000000     0.546110000000     0.272040000000     1.38091    
V79      V      0.741390000000     0.005560000000     0.017020000000     1.35881    
V80      V      0.799090000000     0.006850000000     0.518850000000     1.3862     
V81      V      0.520050000000     0.715100000000     0.009380000000     1.38666    
V82      V      0.516030000000     0.770920000000     0.497600000000     1.3831     
V83      V      0.768430000000     0.754720000000     0.048610000000     1.39484    
V84      V      0.766890000000     0.758680000000     0.490520000000     1.38796    
V85      V      0.000500000000     0.505190000000     0.728830000000     1.38014    
V86      V      0.000190000000     0.002470000000     0.787090000000     1.36636    
V87      V      0.978590000000     0.753250000000     0.755630000000     1.36835    
V88      V      0.536280000000     0.751780000000     0.757170000000     1.38755    
V89      V      0.755070000000     0.989180000000     0.772910000000     1.38857    
V90      V      0.753410000000     0.546110000000     0.772040000000     1.38091    
V91      V      0.741390000000     0.005560000000     0.517020000000     1.3589     
V92      V      0.799090000000     0.006850000000     0.018850000000     1.38612    
V93      V      0.520050000000     0.715100000000     0.509380000000     1.38689    
V94      V      0.516030000000     0.770920000000     0.997600000000     1.38339    
V95      V      0.768430000000     0.754720000000     0.548610000000     1.39487    
V96      V      0.766890000000     0.758680000000     0.990520000000     1.38804    


