data_structure

_audit_creation_method RASPA-1.0
_audit_creation_date 2023-5-19
_audit_author_name 'Poobodin Mano'

_cell_length_a    42.2619
_cell_length_b    42.1686
_cell_length_c    42.2363
_cell_angle_alpha 90
_cell_angle_beta  90
_cell_angle_gamma 90
_cell_volume      75270.4

_symmetry_cell_setting          triclinic
_symmetry_space_group_name_Hall 'P 1'
_symmetry_space_group_name_H-M  'P 1'
_symmetry_Int_Tables_number     1

_symmetry_equiv_pos_as_xyz 'x,y,z'

loop_
_atom_site_label
_atom_site_type_symbol
_atom_site_fract_x
_atom_site_fract_y
_atom_site_fract_z
_atom_site_charge
C1       C      0.497720000000     0.066080000000     0.252360000000     0.48272    
C2       C      0.497630000000     0.446380000000     0.250990000000     0.482173   
C3       C      0.438580000000     0.506880000000     0.254510000000     0.478674   
C4       C      0.057860000000     0.506730000000     0.248810000000     0.471011   
C5       C      0.005740000000     0.253910000000     0.192840000000     0.487578   
C6       C      0.003670000000     0.259260000000     0.312050000000     0.482041   
C7       C      0.505070000000     0.316010000000     0.248350000000     0.477123   
C8       C      0.504580000000     0.196460000000     0.256200000000     0.472467   
C9       C      0.248780000000     0.008460000000     0.188840000000     0.486112   
C10      C      0.246390000000     0.000120000000     0.308600000000     0.471956   
C11      C      0.188130000000     0.502790000000     0.248920000000     0.484881   
C12      C      0.307860000000     0.506620000000     0.249450000000     0.486482   
C13      C      0.251050000000     0.995080000000     0.439840000000     0.491047   
C14      C      0.256690000000     0.998790000000     0.059550000000     0.48275    
C15      C      0.249120000000     0.056860000000     0.998270000000     0.492328   
C16      C      0.258760000000     0.437390000000     0.002350000000     0.491206   
C17      C      0.010880000000     0.251060000000     0.063260000000     0.47595    
C18      C      0.001020000000     0.256440000000     0.444100000000     0.485095   
C19      C      0.065130000000     0.253970000000     0.498340000000     0.474185   
C20      C      0.445780000000     0.253880000000     0.508470000000     0.489967   
C21      C      0.255680000000     0.186710000000     0.505110000000     0.472397   
C22      C      0.254960000000     0.306820000000     0.503350000000     0.478583   
C23      C      0.195450000000     0.246990000000     0.002810000000     0.483443   
C24      C      0.315140000000     0.246790000000     0.005290000000     0.468226   
C25      C      0.364710000000     0.225500000000     0.027300000000    -0.0102639  
C26      C      0.364810000000     0.260090000000     0.478540000000    -0.0308412  
C27      C      0.397590000000     0.238350000000     0.036130000000    -0.00644704 
C28      C      0.395010000000     0.276730000000     0.490350000000     0.0975018  
C29      C      0.113510000000     0.230970000000     0.474900000000    -0.00849671 
C30      C      0.115570000000     0.282120000000     0.505310000000    -0.0300534  
C31      C      0.145850000000     0.221490000000     0.988450000000    -0.00112467 
C32      C      0.145840000000     0.271000000000     0.022430000000     0.0974453  
C33      C      0.263000000000     0.356770000000     0.474170000000    -0.00638607 
C34      C      0.237500000000     0.356530000000     0.028460000000    -0.0343604  
C35      C      0.280530000000     0.387230000000     0.483040000000    -0.00780491 
C36      C      0.253000000000     0.389060000000     0.035300000000     0.0965001  
C37      C      0.277720000000     0.137050000000     0.483860000000    -0.00948653 
C38      C      0.242460000000     0.136490000000     0.031940000000    -0.0310544  
C39      C      0.262040000000     0.106730000000     0.471890000000    -0.00580256 
C40      C      0.225110000000     0.106890000000     0.018850000000     0.0937935  
C41      C      0.225200000000     0.520030000000     0.359300000000    -0.0108215  
C42      C      0.252720000000     0.467370000000     0.356290000000    -0.0324252  
C43      C      0.238380000000     0.024810000000     0.392840000000    -0.00796975 
C44      C      0.269290000000     0.973870000000     0.387880000000     0.0943222  
C45      C      0.239010000000     0.475890000000     0.110010000000    -0.0103216  
C46      C      0.282150000000     0.017060000000     0.108970000000    -0.0268836  
C47      C      0.224630000000     0.491450000000     0.139210000000    -0.00362301 
C48      C      0.266960000000     0.033560000000     0.138230000000     0.0943074  
C49      C      0.016250000000     0.232320000000     0.393750000000    -0.00531823 
C50      C      0.489010000000     0.286360000000     0.395610000000    -0.0252374  
C51      C      0.028790000000     0.244880000000     0.362270000000    -0.0013083  
C52      C      0.479020000000     0.279300000000     0.360940000000     0.0984765  
C53      C      0.005840000000     0.221140000000     0.113220000000    -0.00542421 
C54      C      0.032620000000     0.274510000000     0.112040000000    -0.0310757  
C55      C      0.487740000000     0.230890000000     0.143040000000    -0.00519625 
C56      C      0.515980000000     0.283420000000     0.143310000000     0.094777   
C57      C      0.107410000000     0.995910000000     0.219790000000    -0.00842616 
C58      C      0.107310000000     0.029640000000     0.269130000000    -0.0312286  
C59      C      0.138090000000     0.480010000000     0.230800000000    -0.00455643 
C60      C      0.139180000000     0.514800000000     0.278990000000     0.0946391  
C61      C      0.388170000000     0.490690000000     0.278530000000    -0.00565588 
C62      C      0.391500000000     0.038110000000     0.243010000000    -0.031569   
C63      C      0.357660000000     0.480170000000     0.262280000000    -0.00667985 
C64      C      0.357970000000     0.030980000000     0.230020000000     0.0968183  
C65      C      0.031630000000     0.367290000000     0.257200000000    -0.00903246 
C66      C      0.483440000000     0.363700000000     0.222530000000    -0.0320286  
C67      C      0.018210000000     0.396970000000     0.272980000000    -0.00450303 
C68      C      0.471370000000     0.395550000000     0.236120000000     0.0950344  
C69      C      0.031280000000     0.145260000000     0.247380000000    -0.00999543 
C70      C      0.481650000000     0.148430000000     0.280260000000    -0.0316445  
C71      C      0.018590000000     0.115560000000     0.231060000000    -0.00352385 
C72      C      0.470520000000     0.116450000000     0.266150000000     0.0944328  
C73      C      0.497720000000     0.066080000000     0.752360000000     0.482658   
C74      C      0.497630000000     0.446380000000     0.750990000000     0.482118   
C75      C      0.438580000000     0.506880000000     0.754520000000     0.478608   
C76      C      0.057860000000     0.506730000000     0.748810000000     0.470952   
C77      C      0.005740000000     0.253910000000     0.692840000000     0.487596   
C78      C      0.003670000000     0.259260000000     0.812050000000     0.482071   
C79      C      0.505070000000     0.316010000000     0.748350000000     0.477119   
C80      C      0.504580000000     0.196460000000     0.756200000000     0.472469   
C81      C      0.248780000000     0.008460000000     0.688840000000     0.4861     
C82      C      0.246390000000     0.000120000000     0.808600000000     0.471948   
C83      C      0.188130000000     0.502790000000     0.748920000000     0.484857   
C84      C      0.307860000000     0.506620000000     0.749450000000     0.486472   
C85      C      0.251050000000     0.995080000000     0.939840000000     0.491032   
C86      C      0.256690000000     0.998790000000     0.559550000000     0.482402   
C87      C      0.249120000000     0.056860000000     0.498270000000     0.48798    
C88      C      0.258760000000     0.437390000000     0.502350000000     0.491204   
C89      C      0.010880000000     0.251060000000     0.563260000000     0.476436   
C90      C      0.001020000000     0.256440000000     0.944100000000     0.484314   
C91      C      0.065130000000     0.253970000000     0.998340000000     0.477573   
C92      C      0.445780000000     0.253880000000     0.008470000000     0.48936    
C93      C      0.255680000000     0.186710000000     0.005110000000     0.468359   
C94      C      0.254960000000     0.306820000000     0.003350000000     0.474558   
C95      C      0.195450000000     0.246990000000     0.502810000000     0.487255   
C96      C      0.315140000000     0.246790000000     0.505290000000     0.472324   
C97      C      0.364710000000     0.225500000000     0.527300000000    -0.0098687  
C98      C      0.364810000000     0.260090000000     0.978540000000    -0.0297955  
C99      C      0.397590000000     0.238350000000     0.536130000000    -0.00639159 
C100     C      0.395010000000     0.276730000000     0.990350000000     0.103067   
C101     C      0.113510000000     0.230970000000     0.974900000000    -0.0100166  
C102     C      0.115570000000     0.282120000000     0.005310000000    -0.0365603  
C103     C      0.145850000000     0.221490000000     0.488450000000    -0.00782455 
C104     C      0.145840000000     0.271000000000     0.522430000000     0.0963286  
C105     C      0.263000000000     0.356770000000     0.974170000000    -0.00447706 
C106     C      0.237500000000     0.356530000000     0.528460000000    -0.0340086  
C107     C      0.280530000000     0.387230000000     0.983040000000    -0.00560005 
C108     C      0.253000000000     0.389060000000     0.535300000000     0.0966543  
C109     C      0.277720000000     0.137050000000     0.983860000000    -0.00705528 
C110     C      0.242460000000     0.136490000000     0.531940000000    -0.0311235  
C111     C      0.262040000000     0.106730000000     0.971890000000    -0.00594887 
C112     C      0.225110000000     0.106890000000     0.518850000000     0.0959129  
C113     C      0.225200000000     0.520030000000     0.859300000000    -0.0108165  
C114     C      0.252720000000     0.467370000000     0.856290000000    -0.0324765  
C115     C      0.238380000000     0.024810000000     0.892840000000    -0.00798387 
C116     C      0.269290000000     0.973870000000     0.887880000000     0.0944416  
C117     C      0.239010000000     0.475890000000     0.610010000000    -0.010334   
C118     C      0.282150000000     0.017060000000     0.608970000000    -0.0269924  
C119     C      0.224630000000     0.491450000000     0.639220000000    -0.00361804 
C120     C      0.266960000000     0.033560000000     0.638230000000     0.0943563  
C121     C      0.016250000000     0.232320000000     0.893750000000    -0.00537074 
C122     C      0.489010000000     0.286360000000     0.895610000000    -0.0253321  
C123     C      0.028790000000     0.244880000000     0.862270000000    -0.00128949 
C124     C      0.479020000000     0.279300000000     0.860940000000     0.0985206  
C125     C      0.005840000000     0.221140000000     0.613220000000    -0.00535354 
C126     C      0.032620000000     0.274510000000     0.612040000000    -0.0310321  
C127     C      0.487740000000     0.230890000000     0.643040000000    -0.00520882 
C128     C      0.515980000000     0.283420000000     0.643310000000     0.094765   
C129     C      0.107410000000     0.995910000000     0.719790000000    -0.00843639 
C130     C      0.107310000000     0.029640000000     0.769130000000    -0.0312467  
C131     C      0.138090000000     0.480010000000     0.730800000000    -0.0045623  
C132     C      0.139180000000     0.514800000000     0.778990000000     0.0946477  
C133     C      0.388170000000     0.490690000000     0.778530000000    -0.00568978 
C134     C      0.391500000000     0.038110000000     0.743010000000    -0.0315575  
C135     C      0.357660000000     0.480170000000     0.762280000000    -0.00664829 
C136     C      0.357970000000     0.030980000000     0.730020000000     0.0967747  
C137     C      0.031630000000     0.367290000000     0.757200000000    -0.00906076 
C138     C      0.483440000000     0.363700000000     0.722530000000    -0.0320426  
C139     C      0.018210000000     0.396970000000     0.772980000000    -0.00450106 
C140     C      0.471370000000     0.395550000000     0.736120000000     0.0950341  
C141     C      0.031280000000     0.145260000000     0.747380000000    -0.00992954 
C142     C      0.481650000000     0.148430000000     0.780260000000    -0.0316667  
C143     C      0.018590000000     0.115560000000     0.731050000000    -0.00363453 
C144     C      0.470520000000     0.116450000000     0.766150000000     0.0944416  
C145     C      0.497720000000     0.566080000000     0.252360000000     0.4828     
C146     C      0.497630000000     0.946380000000     0.250990000000     0.482009   
C147     C      0.438580000000     0.006890000000     0.254510000000     0.47855    
C148     C      0.057860000000     0.006730000000     0.248810000000     0.470883   
C149     C      0.005740000000     0.753910000000     0.192840000000     0.487553   
C150     C      0.003670000000     0.759260000000     0.312050000000     0.482016   
C151     C      0.505070000000     0.816010000000     0.248350000000     0.477123   
C152     C      0.504580000000     0.696460000000     0.256200000000     0.472466   
C153     C      0.248780000000     0.508460000000     0.188840000000     0.487295   
C154     C      0.246390000000     0.500120000000     0.308600000000     0.474059   
C155     C      0.188130000000     0.002790000000     0.248920000000     0.483584   
C156     C      0.307860000000     0.006620000000     0.249450000000     0.485235   
C157     C      0.251050000000     0.495080000000     0.439840000000     0.49076    
C158     C      0.256690000000     0.498800000000     0.059550000000     0.481201   
C159     C      0.249120000000     0.556860000000     0.998270000000     0.492132   
C160     C      0.258760000000     0.937390000000     0.002350000000     0.491386   
C161     C      0.010880000000     0.751060000000     0.063260000000     0.475944   
C162     C      0.001020000000     0.756440000000     0.444100000000     0.485088   
C163     C      0.065130000000     0.753970000000     0.498340000000     0.47418    
C164     C      0.445780000000     0.753880000000     0.508470000000     0.489962   
C165     C      0.255680000000     0.686710000000     0.505110000000     0.47245    
C166     C      0.254960000000     0.806820000000     0.503350000000     0.478567   
C167     C      0.195450000000     0.746990000000     0.002810000000     0.483423   
C168     C      0.315140000000     0.746790000000     0.005290000000     0.468179   
C169     C      0.364710000000     0.725500000000     0.027300000000    -0.010269   
C170     C      0.364810000000     0.760090000000     0.478540000000    -0.0308469  
C171     C      0.397590000000     0.738350000000     0.036130000000    -0.00644863 
C172     C      0.395010000000     0.776730000000     0.490350000000     0.097502   
C173     C      0.113510000000     0.730970000000     0.474900000000    -0.0084972  
C174     C      0.115570000000     0.782120000000     0.505310000000    -0.0300243  
C175     C      0.145850000000     0.721490000000     0.988450000000    -0.0011201  
C176     C      0.145840000000     0.771000000000     0.022430000000     0.0974381  
C177     C      0.263000000000     0.856770000000     0.474170000000    -0.00639885 
C178     C      0.237500000000     0.856530000000     0.028460000000    -0.0343723  
C179     C      0.280530000000     0.887230000000     0.483040000000    -0.00777355 
C180     C      0.253000000000     0.889060000000     0.035300000000     0.0965166  
C181     C      0.277720000000     0.637050000000     0.483860000000    -0.00948307 
C182     C      0.242460000000     0.636490000000     0.031940000000    -0.0310527  
C183     C      0.262040000000     0.606730000000     0.471890000000    -0.00581726 
C184     C      0.225110000000     0.606890000000     0.018850000000     0.0937854  
C185     C      0.225200000000     0.020030000000     0.359300000000    -0.0115505  
C186     C      0.252720000000     0.967370000000     0.356290000000    -0.0324347  
C187     C      0.238380000000     0.524810000000     0.392840000000    -0.00733507 
C188     C      0.269290000000     0.473870000000     0.387880000000     0.0942346  
C189     C      0.239010000000     0.975890000000     0.110010000000    -0.0107963  
C190     C      0.282150000000     0.517060000000     0.108970000000    -0.0261525  
C191     C      0.224630000000     0.991450000000     0.139210000000    -0.00145168 
C192     C      0.266960000000     0.533560000000     0.138230000000     0.0942312  
C193     C      0.016250000000     0.732320000000     0.393750000000    -0.0053199  
C194     C      0.489010000000     0.786360000000     0.395610000000    -0.0252346  
C195     C      0.028790000000     0.744880000000     0.362270000000    -0.00131152 
C196     C      0.479020000000     0.779300000000     0.360940000000     0.0984396  
C197     C      0.005840000000     0.721150000000     0.113220000000    -0.00534138 
C198     C      0.032620000000     0.774510000000     0.112040000000    -0.0310745  
C199     C      0.487740000000     0.730890000000     0.143040000000    -0.005249   
C200     C      0.515980000000     0.783420000000     0.143310000000     0.0947745  
C201     C      0.107410000000     0.495910000000     0.219790000000    -0.0104857  
C202     C      0.107310000000     0.529640000000     0.269130000000    -0.0315006  
C203     C      0.138090000000     0.980010000000     0.230800000000    -0.00435469 
C204     C      0.139180000000     0.014800000000     0.278990000000     0.0934282  
C205     C      0.388170000000     0.990690000000     0.278530000000    -0.0035849  
C206     C      0.391500000000     0.538110000000     0.243010000000    -0.031552   
C207     C      0.357660000000     0.980170000000     0.262280000000    -0.00641793 
C208     C      0.357970000000     0.530980000000     0.230020000000     0.0969179  
C209     C      0.031630000000     0.867290000000     0.257200000000    -0.00902339 
C210     C      0.483440000000     0.863700000000     0.222530000000    -0.0320404  
C211     C      0.018210000000     0.896970000000     0.272980000000    -0.00454019 
C212     C      0.471370000000     0.895550000000     0.236120000000     0.0950474  
C213     C      0.031280000000     0.645260000000     0.247380000000    -0.00999764 
C214     C      0.481650000000     0.648430000000     0.280260000000    -0.0316508  
C215     C      0.018590000000     0.615560000000     0.231060000000    -0.00353107 
C216     C      0.470520000000     0.616450000000     0.266150000000     0.0944384  
C217     C      0.497720000000     0.566080000000     0.752360000000     0.482739   
C218     C      0.497630000000     0.946380000000     0.750990000000     0.481953   
C219     C      0.438580000000     0.006890000000     0.754520000000     0.478483   
C220     C      0.057860000000     0.006730000000     0.748810000000     0.470823   
C221     C      0.005740000000     0.753910000000     0.692840000000     0.487571   
C222     C      0.003670000000     0.759260000000     0.812050000000     0.482046   
C223     C      0.505070000000     0.816010000000     0.748350000000     0.477119   
C224     C      0.504580000000     0.696460000000     0.756200000000     0.472467   
C225     C      0.248780000000     0.508460000000     0.688840000000     0.487287   
C226     C      0.246390000000     0.500120000000     0.808600000000     0.474059   
C227     C      0.188130000000     0.002790000000     0.748920000000     0.483555   
C228     C      0.307860000000     0.006620000000     0.749450000000     0.48522    
C229     C      0.251050000000     0.495080000000     0.939840000000     0.490746   
C230     C      0.256690000000     0.498800000000     0.559550000000     0.48085    
C231     C      0.249120000000     0.556860000000     0.498270000000     0.48777    
C232     C      0.258760000000     0.937390000000     0.502350000000     0.491385   
C233     C      0.010880000000     0.751060000000     0.563260000000     0.47643    
C234     C      0.001020000000     0.756440000000     0.944100000000     0.484306   
C235     C      0.065130000000     0.753970000000     0.998340000000     0.477571   
C236     C      0.445780000000     0.753880000000     0.008470000000     0.489355   
C237     C      0.255680000000     0.686710000000     0.005110000000     0.468407   
C238     C      0.254960000000     0.806820000000     0.003350000000     0.47454    
C239     C      0.195450000000     0.746990000000     0.502810000000     0.487239   
C240     C      0.315140000000     0.746790000000     0.505290000000     0.472281   
C241     C      0.364710000000     0.725500000000     0.527300000000    -0.00987366 
C242     C      0.364810000000     0.760090000000     0.978540000000    -0.0297997  
C243     C      0.397590000000     0.738350000000     0.536130000000    -0.00639301 
C244     C      0.395010000000     0.776730000000     0.990350000000     0.10307    
C245     C      0.113510000000     0.730970000000     0.974900000000    -0.0100187  
C246     C      0.115570000000     0.782120000000     0.005310000000    -0.036533   
C247     C      0.145850000000     0.721490000000     0.488450000000    -0.0078278  
C248     C      0.145840000000     0.771000000000     0.522430000000     0.0963213  
C249     C      0.263000000000     0.856770000000     0.974170000000    -0.00448922 
C250     C      0.237500000000     0.856530000000     0.528460000000    -0.0340205  
C251     C      0.280530000000     0.887230000000     0.983040000000    -0.00557043 
C252     C      0.253000000000     0.889060000000     0.535300000000     0.0966707  
C253     C      0.277720000000     0.637050000000     0.983860000000    -0.00704718 
C254     C      0.242460000000     0.636490000000     0.531940000000    -0.0311222  
C255     C      0.262040000000     0.606730000000     0.971890000000    -0.00596364 
C256     C      0.225110000000     0.606890000000     0.518850000000     0.0959101  
C257     C      0.225200000000     0.020030000000     0.859300000000    -0.0115483  
C258     C      0.252720000000     0.967370000000     0.856290000000    -0.032486   
C259     C      0.238380000000     0.524810000000     0.892840000000    -0.0073461  
C260     C      0.269290000000     0.473870000000     0.887880000000     0.0943538  
C261     C      0.239010000000     0.975890000000     0.610010000000    -0.010809   
C262     C      0.282150000000     0.517060000000     0.608970000000    -0.02626    
C263     C      0.224630000000     0.991450000000     0.639220000000    -0.00144276 
C264     C      0.266960000000     0.533560000000     0.638230000000     0.0942801  
C265     C      0.016250000000     0.732320000000     0.893750000000    -0.00537247 
C266     C      0.489010000000     0.786360000000     0.895610000000    -0.0253293  
C267     C      0.028790000000     0.744880000000     0.862270000000    -0.00129268 
C268     C      0.479020000000     0.779300000000     0.860940000000     0.0984837  
C269     C      0.005840000000     0.721150000000     0.613220000000    -0.00527075 
C270     C      0.032620000000     0.774510000000     0.612040000000    -0.0310309  
C271     C      0.487740000000     0.730890000000     0.643040000000    -0.00526158 
C272     C      0.515980000000     0.783420000000     0.643310000000     0.0947625  
C273     C      0.107410000000     0.495910000000     0.719790000000    -0.0105004  
C274     C      0.107310000000     0.529640000000     0.769130000000    -0.0315195  
C275     C      0.138090000000     0.980010000000     0.730800000000    -0.00435989 
C276     C      0.139180000000     0.014800000000     0.778990000000     0.0934326  
C277     C      0.388170000000     0.990690000000     0.778530000000    -0.00361296 
C278     C      0.391500000000     0.538110000000     0.743010000000    -0.0315404  
C279     C      0.357660000000     0.980170000000     0.762280000000    -0.00638599 
C280     C      0.357970000000     0.530980000000     0.730020000000     0.0968746  
C281     C      0.031630000000     0.867290000000     0.757200000000    -0.00905168 
C282     C      0.483440000000     0.863700000000     0.722530000000    -0.0320545  
C283     C      0.018210000000     0.896970000000     0.772980000000    -0.00453826 
C284     C      0.471370000000     0.895550000000     0.736120000000     0.0950472  
C285     C      0.031280000000     0.645260000000     0.747380000000    -0.00993179 
C286     C      0.481650000000     0.648430000000     0.780260000000    -0.0316731  
C287     C      0.018590000000     0.615560000000     0.731050000000    -0.00364172 
C288     C      0.470520000000     0.616450000000     0.766150000000     0.0944472  
C289     C      0.997720000000     0.066080000000     0.252360000000     0.480305   
C290     C      0.997640000000     0.446380000000     0.250990000000     0.479779   
C291     C      0.938580000000     0.506880000000     0.254510000000     0.478431   
C292     C      0.557860000000     0.506730000000     0.248810000000     0.471482   
C293     C      0.505740000000     0.253910000000     0.192840000000     0.485421   
C294     C      0.503670000000     0.259260000000     0.312050000000     0.479864   
C295     C      0.005070000000     0.316010000000     0.248350000000     0.479542   
C296     C      0.004580000000     0.196460000000     0.256200000000     0.474286   
C297     C      0.748780000000     0.008460000000     0.188840000000     0.486096   
C298     C      0.746390000000     0.000120000000     0.308600000000     0.471923   
C299     C      0.688130000000     0.502790000000     0.248920000000     0.484881   
C300     C      0.807860000000     0.506620000000     0.249450000000     0.486484   
C301     C      0.751050000000     0.995080000000     0.439840000000     0.491379   
C302     C      0.756690000000     0.998790000000     0.059550000000     0.482789   
C303     C      0.749120000000     0.056860000000     0.998270000000     0.492321   
C304     C      0.758760000000     0.437390000000     0.002350000000     0.49122    
C305     C      0.510880000000     0.251060000000     0.063260000000     0.475439   
C306     C      0.501020000000     0.256440000000     0.444100000000     0.484713   
C307     C      0.565130000000     0.253970000000     0.498340000000     0.474029   
C308     C      0.945780000000     0.253880000000     0.508470000000     0.490212   
C309     C      0.755680000000     0.186710000000     0.505110000000     0.472401   
C310     C      0.754970000000     0.306820000000     0.503350000000     0.478578   
C311     C      0.695450000000     0.246990000000     0.002810000000     0.483469   
C312     C      0.815150000000     0.246790000000     0.005290000000     0.468169   
C313     C      0.864710000000     0.225500000000     0.027300000000    -0.010238   
C314     C      0.864810000000     0.260090000000     0.478540000000    -0.030798   
C315     C      0.897590000000     0.238350000000     0.036130000000    -0.00644845 
C316     C      0.895010000000     0.276730000000     0.490350000000     0.0974671  
C317     C      0.613510000000     0.230970000000     0.474900000000    -0.00849429 
C318     C      0.615570000000     0.282120000000     0.505310000000    -0.0300485  
C319     C      0.645850000000     0.221490000000     0.988450000000    -0.00115251 
C320     C      0.645840000000     0.271000000000     0.022430000000     0.0974396  
C321     C      0.763000000000     0.356770000000     0.474170000000    -0.00639196 
C322     C      0.737510000000     0.356530000000     0.028460000000    -0.0342899  
C323     C      0.780530000000     0.387230000000     0.483040000000    -0.00779787 
C324     C      0.752990000000     0.389060000000     0.035300000000     0.0964994  
C325     C      0.777710000000     0.137050000000     0.483860000000    -0.00937219 
C326     C      0.742460000000     0.136490000000     0.031940000000    -0.0310465  
C327     C      0.762040000000     0.106730000000     0.471890000000    -0.00584516 
C328     C      0.725110000000     0.106890000000     0.018850000000     0.0938026  
C329     C      0.725200000000     0.520030000000     0.359300000000    -0.0108195  
C330     C      0.752720000000     0.467370000000     0.356290000000    -0.0324236  
C331     C      0.738380000000     0.024810000000     0.392840000000    -0.00796707 
C332     C      0.769290000000     0.973870000000     0.387880000000     0.0943341  
C333     C      0.739010000000     0.475890000000     0.110010000000    -0.0102744  
C334     C      0.782150000000     0.017060000000     0.108970000000    -0.0269345  
C335     C      0.724630000000     0.491450000000     0.139210000000    -0.00362876 
C336     C      0.766960000000     0.033560000000     0.138230000000     0.0943226  
C337     C      0.516250000000     0.232320000000     0.393750000000    -0.00740609 
C338     C      0.989020000000     0.286360000000     0.395610000000    -0.0281655  
C339     C      0.528790000000     0.244880000000     0.362270000000    -0.000999356
C340     C      0.979020000000     0.279300000000     0.360940000000     0.0980638  
C341     C      0.505840000000     0.221140000000     0.113220000000    -0.00937819 
C342     C      0.532620000000     0.274510000000     0.112040000000    -0.0308605  
C343     C      0.987740000000     0.230890000000     0.143040000000    -0.00850135 
C344     C      0.015980000000     0.283420000000     0.143310000000     0.0965217  
C345     C      0.607410000000     0.995910000000     0.219790000000    -0.00833159 
C346     C      0.607310000000     0.029640000000     0.269130000000    -0.031175   
C347     C      0.638090000000     0.480010000000     0.230800000000    -0.00457816 
C348     C      0.639180000000     0.514800000000     0.278990000000     0.0946239  
C349     C      0.888170000000     0.490690000000     0.278530000000    -0.00565816 
C350     C      0.891500000000     0.038110000000     0.243010000000    -0.0315709  
C351     C      0.857660000000     0.480170000000     0.262280000000    -0.00667979 
C352     C      0.857970000000     0.030980000000     0.230020000000     0.0968096  
C353     C      0.531630000000     0.367290000000     0.257200000000    -0.0089898  
C354     C      0.983440000000     0.363700000000     0.222530000000    -0.0331644  
C355     C      0.518210000000     0.396970000000     0.272980000000    -0.00564734 
C356     C      0.971370000000     0.395550000000     0.236120000000     0.095089   
C357     C      0.531280000000     0.145260000000     0.247380000000    -0.00992168 
C358     C      0.981650000000     0.148430000000     0.280260000000    -0.0328174  
C359     C      0.518590000000     0.115560000000     0.231060000000    -0.00469825 
C360     C      0.970520000000     0.116450000000     0.266150000000     0.0944923  
C361     C      0.997720000000     0.066080000000     0.752360000000     0.480214   
C362     C      0.997640000000     0.446380000000     0.750990000000     0.479694   
C363     C      0.938580000000     0.506880000000     0.754520000000     0.478362   
C364     C      0.557860000000     0.506730000000     0.748810000000     0.471429   
C365     C      0.505740000000     0.253910000000     0.692840000000     0.485415   
C366     C      0.503670000000     0.259260000000     0.812050000000     0.479871   
C367     C      0.005070000000     0.316010000000     0.748350000000     0.479561   
C368     C      0.004580000000     0.196460000000     0.756200000000     0.47431    
C369     C      0.748780000000     0.008460000000     0.688840000000     0.486084   
C370     C      0.746390000000     0.000120000000     0.808600000000     0.471916   
C371     C      0.688130000000     0.502790000000     0.748920000000     0.484856   
C372     C      0.807860000000     0.506620000000     0.749450000000     0.486474   
C373     C      0.751050000000     0.995080000000     0.939840000000     0.491364   
C374     C      0.756690000000     0.998790000000     0.559550000000     0.482443   
C375     C      0.749120000000     0.056860000000     0.498270000000     0.487997   
C376     C      0.758760000000     0.437390000000     0.502350000000     0.491218   
C377     C      0.510880000000     0.251060000000     0.563260000000     0.475917   
C378     C      0.501020000000     0.256440000000     0.944100000000     0.483936   
C379     C      0.565130000000     0.253970000000     0.998340000000     0.477407   
C380     C      0.945780000000     0.253880000000     0.008470000000     0.4896     
C381     C      0.755680000000     0.186710000000     0.005110000000     0.468388   
C382     C      0.754970000000     0.306820000000     0.003350000000     0.474577   
C383     C      0.695450000000     0.246990000000     0.502810000000     0.487262   
C384     C      0.815150000000     0.246790000000     0.505290000000     0.472236   
C385     C      0.864710000000     0.225500000000     0.527300000000    -0.00984601 
C386     C      0.864810000000     0.260090000000     0.978540000000    -0.0297588  
C387     C      0.897590000000     0.238350000000     0.536130000000    -0.00639286 
C388     C      0.895010000000     0.276730000000     0.990350000000     0.102982   
C389     C      0.613510000000     0.230970000000     0.974900000000    -0.010007   
C390     C      0.615570000000     0.282120000000     0.005310000000    -0.0365275  
C391     C      0.645850000000     0.221490000000     0.488450000000    -0.00782239 
C392     C      0.645840000000     0.271000000000     0.522430000000     0.0963276  
C393     C      0.763000000000     0.356770000000     0.974170000000    -0.00449405 
C394     C      0.737510000000     0.356530000000     0.528460000000    -0.0339402  
C395     C      0.780530000000     0.387230000000     0.983040000000    -0.00560599 
C396     C      0.752990000000     0.389060000000     0.535300000000     0.0966525  
C397     C      0.777710000000     0.137050000000     0.983860000000    -0.00695418 
C398     C      0.742460000000     0.136490000000     0.531940000000    -0.0311152  
C399     C      0.762040000000     0.106730000000     0.971890000000    -0.00599133 
C400     C      0.725110000000     0.106890000000     0.518850000000     0.0959097  
C401     C      0.725200000000     0.520030000000     0.859300000000    -0.0108145  
C402     C      0.752720000000     0.467370000000     0.856290000000    -0.0324746  
C403     C      0.738380000000     0.024810000000     0.892840000000    -0.00798101 
C404     C      0.769290000000     0.973870000000     0.887880000000     0.094453   
C405     C      0.739010000000     0.475890000000     0.610010000000    -0.0102867  
C406     C      0.782150000000     0.017060000000     0.608970000000    -0.0270424  
C407     C      0.724630000000     0.491450000000     0.639220000000    -0.00362371 
C408     C      0.766960000000     0.033560000000     0.638230000000     0.0943711  
C409     C      0.516250000000     0.232320000000     0.893750000000    -0.00748434 
C410     C      0.989020000000     0.286360000000     0.895610000000    -0.0282994  
C411     C      0.528790000000     0.244880000000     0.862270000000    -0.000976376
C412     C      0.979020000000     0.279300000000     0.860940000000     0.098103   
C413     C      0.505840000000     0.221140000000     0.613220000000    -0.00935899 
C414     C      0.532620000000     0.274510000000     0.612040000000    -0.0308143  
C415     C      0.987740000000     0.230890000000     0.643040000000    -0.00855759 
C416     C      0.015980000000     0.283420000000     0.643310000000     0.0965316  
C417     C      0.607410000000     0.995910000000     0.719790000000    -0.00834125 
C418     C      0.607310000000     0.029640000000     0.769130000000    -0.0311925  
C419     C      0.638090000000     0.480010000000     0.730800000000    -0.00458425 
C420     C      0.639180000000     0.514800000000     0.778990000000     0.0946322  
C421     C      0.888170000000     0.490690000000     0.778530000000    -0.00569196 
C422     C      0.891500000000     0.038110000000     0.743010000000    -0.0315593  
C423     C      0.857660000000     0.480170000000     0.762280000000    -0.00664821 
C424     C      0.857970000000     0.030980000000     0.730020000000     0.096766   
C425     C      0.531630000000     0.367290000000     0.757200000000    -0.00901704 
C426     C      0.983440000000     0.363700000000     0.722530000000    -0.0331922  
C427     C      0.518210000000     0.396970000000     0.772980000000    -0.00565896 
C428     C      0.971370000000     0.395550000000     0.736120000000     0.095089   
C429     C      0.531280000000     0.145260000000     0.747380000000    -0.0098553  
C430     C      0.981650000000     0.148430000000     0.780260000000    -0.0328534  
C431     C      0.518590000000     0.115560000000     0.731050000000    -0.00482199 
C432     C      0.970520000000     0.116450000000     0.766150000000     0.0945015  
C433     C      0.997720000000     0.566080000000     0.252360000000     0.480401   
C434     C      0.997640000000     0.946380000000     0.250990000000     0.479651   
C435     C      0.938580000000     0.006890000000     0.254510000000     0.478305   
C436     C      0.557860000000     0.006730000000     0.248810000000     0.471356   
C437     C      0.505740000000     0.753910000000     0.192840000000     0.485418   
C438     C      0.503670000000     0.759260000000     0.312050000000     0.479861   
C439     C      0.005070000000     0.816010000000     0.248350000000     0.479518   
C440     C      0.004580000000     0.696460000000     0.256200000000     0.474266   
C441     C      0.748780000000     0.508460000000     0.188840000000     0.487298   
C442     C      0.746390000000     0.500120000000     0.308600000000     0.47406    
C443     C      0.688130000000     0.002790000000     0.248920000000     0.483561   
C444     C      0.807860000000     0.006620000000     0.249450000000     0.485218   
C445     C      0.751050000000     0.495080000000     0.439840000000     0.491089   
C446     C      0.756690000000     0.498800000000     0.059550000000     0.481217   
C447     C      0.749120000000     0.556860000000     0.998270000000     0.492121   
C448     C      0.758760000000     0.937390000000     0.002350000000     0.491402   
C449     C      0.510880000000     0.751060000000     0.063260000000     0.475437   
C450     C      0.501020000000     0.756440000000     0.444100000000     0.484709   
C451     C      0.565130000000     0.753970000000     0.498340000000     0.474026   
C452     C      0.945780000000     0.753880000000     0.508470000000     0.490204   
C453     C      0.755680000000     0.686710000000     0.505110000000     0.472454   
C454     C      0.754970000000     0.806820000000     0.503350000000     0.478562   
C455     C      0.695450000000     0.746990000000     0.002810000000     0.483449   
C456     C      0.815150000000     0.746790000000     0.005290000000     0.468122   
C457     C      0.864710000000     0.725500000000     0.027300000000    -0.0102432  
C458     C      0.864810000000     0.760090000000     0.478540000000    -0.0308038  
C459     C      0.897590000000     0.738350000000     0.036130000000    -0.00645024 
C460     C      0.895010000000     0.776730000000     0.490350000000     0.0974674  
C461     C      0.613510000000     0.730970000000     0.474900000000    -0.00849485 
C462     C      0.615570000000     0.782120000000     0.505310000000    -0.0300197  
C463     C      0.645850000000     0.721490000000     0.988450000000    -0.00114801 
C464     C      0.645840000000     0.771000000000     0.022430000000     0.0974325  
C465     C      0.763000000000     0.856770000000     0.474170000000    -0.00640486 
C466     C      0.737510000000     0.856530000000     0.028460000000    -0.034302   
C467     C      0.780530000000     0.887230000000     0.483040000000    -0.00776643 
C468     C      0.752990000000     0.889060000000     0.035300000000     0.096516   
C469     C      0.777710000000     0.637050000000     0.483860000000    -0.00936871 
C470     C      0.742460000000     0.636490000000     0.031940000000    -0.0310449  
C471     C      0.762040000000     0.606730000000     0.471890000000    -0.00586016 
C472     C      0.725110000000     0.606890000000     0.018850000000     0.0937945  
C473     C      0.725200000000     0.020030000000     0.359300000000    -0.01156    
C474     C      0.752720000000     0.967370000000     0.356290000000    -0.0324334  
C475     C      0.738380000000     0.524810000000     0.392840000000    -0.00732244 
C476     C      0.769290000000     0.473870000000     0.387880000000     0.0942451  
C477     C      0.739010000000     0.975890000000     0.110010000000    -0.0107562  
C478     C      0.782150000000     0.517060000000     0.108970000000    -0.0261921  
C479     C      0.724630000000     0.991450000000     0.139210000000    -0.00142208 
C480     C      0.766960000000     0.533560000000     0.138230000000     0.0942452  
C481     C      0.516250000000     0.732320000000     0.393750000000    -0.00738837 
C482     C      0.989020000000     0.786360000000     0.395610000000    -0.0281296  
C483     C      0.528790000000     0.744880000000     0.362270000000    -0.0010051  
C484     C      0.979020000000     0.779300000000     0.360940000000     0.0980308  
C485     C      0.505840000000     0.721150000000     0.113220000000    -0.00925682 
C486     C      0.532620000000     0.774510000000     0.112040000000    -0.0308624  
C487     C      0.987740000000     0.730890000000     0.143040000000    -0.0085225  
C488     C      0.015980000000     0.783420000000     0.143310000000     0.096499   
C489     C      0.607410000000     0.495910000000     0.219790000000    -0.0104357  
C490     C      0.607310000000     0.529640000000     0.269130000000    -0.0314527  
C491     C      0.638090000000     0.980010000000     0.230800000000    -0.00437389 
C492     C      0.639180000000     0.014800000000     0.278990000000     0.0933887  
C493     C      0.888170000000     0.990690000000     0.278530000000    -0.00355896 
C494     C      0.891500000000     0.538110000000     0.243010000000    -0.0315539  
C495     C      0.857660000000     0.980170000000     0.262280000000    -0.00641401 
C496     C      0.857970000000     0.530980000000     0.230020000000     0.0969106  
C497     C      0.531630000000     0.867290000000     0.257200000000    -0.00898222 
C498     C      0.983440000000     0.863700000000     0.222530000000    -0.0331608  
C499     C      0.518210000000     0.896970000000     0.272980000000    -0.00566583 
C500     C      0.971370000000     0.895550000000     0.236120000000     0.0951015  
C501     C      0.531280000000     0.645260000000     0.247380000000    -0.00992416 
C502     C      0.981650000000     0.648430000000     0.280260000000    -0.0328143  
C503     C      0.518590000000     0.615560000000     0.231060000000    -0.00469702 
C504     C      0.970520000000     0.616450000000     0.266150000000     0.0944971  
C505     C      0.997720000000     0.566080000000     0.752360000000     0.48031    
C506     C      0.997640000000     0.946380000000     0.750990000000     0.479566   
C507     C      0.938580000000     0.006890000000     0.754520000000     0.478234   
C508     C      0.557860000000     0.006730000000     0.748810000000     0.471302   
C509     C      0.505740000000     0.753910000000     0.692840000000     0.485412   
C510     C      0.503670000000     0.759260000000     0.812050000000     0.479868   
C511     C      0.005070000000     0.816010000000     0.748350000000     0.479537   
C512     C      0.004580000000     0.696460000000     0.756200000000     0.47429    
C513     C      0.748780000000     0.508460000000     0.688840000000     0.48729    
C514     C      0.746390000000     0.500120000000     0.808600000000     0.47406    
C515     C      0.688130000000     0.002790000000     0.748920000000     0.483532   
C516     C      0.807860000000     0.006620000000     0.749450000000     0.485204   
C517     C      0.751050000000     0.495080000000     0.939840000000     0.491073   
C518     C      0.756690000000     0.498800000000     0.559550000000     0.480868   
C519     C      0.749120000000     0.556860000000     0.498270000000     0.487783   
C520     C      0.758760000000     0.937390000000     0.502350000000     0.4914     
C521     C      0.510880000000     0.751060000000     0.563260000000     0.475916   
C522     C      0.501020000000     0.756440000000     0.944100000000     0.483931   
C523     C      0.565130000000     0.753970000000     0.998340000000     0.477406   
C524     C      0.945780000000     0.753880000000     0.008470000000     0.489592   
C525     C      0.755680000000     0.686710000000     0.005110000000     0.468436   
C526     C      0.754970000000     0.806820000000     0.003350000000     0.474559   
C527     C      0.695450000000     0.746990000000     0.502810000000     0.487245   
C528     C      0.815150000000     0.746790000000     0.505290000000     0.472193   
C529     C      0.864710000000     0.725500000000     0.527300000000    -0.00985092 
C530     C      0.864810000000     0.760090000000     0.978540000000    -0.0297632  
C531     C      0.897590000000     0.738350000000     0.536130000000    -0.00639449 
C532     C      0.895010000000     0.776730000000     0.990350000000     0.102986   
C533     C      0.613510000000     0.730970000000     0.974900000000    -0.0100092  
C534     C      0.615570000000     0.782120000000     0.005310000000    -0.0365004  
C535     C      0.645850000000     0.721490000000     0.488450000000    -0.00782569 
C536     C      0.645840000000     0.771000000000     0.522430000000     0.0963204  
C537     C      0.763000000000     0.856770000000     0.974170000000    -0.00450633 
C538     C      0.737510000000     0.856530000000     0.528460000000    -0.0339523  
C539     C      0.780530000000     0.887230000000     0.983040000000    -0.00557627 
C540     C      0.752990000000     0.889060000000     0.535300000000     0.0966692  
C541     C      0.777710000000     0.637050000000     0.983860000000    -0.00694608 
C542     C      0.742460000000     0.636490000000     0.531940000000    -0.031114   
C543     C      0.762040000000     0.606730000000     0.971890000000    -0.00600641 
C544     C      0.725110000000     0.606890000000     0.518850000000     0.0959068  
C545     C      0.725200000000     0.020030000000     0.859300000000    -0.0115578  
C546     C      0.752720000000     0.967370000000     0.856290000000    -0.0324844  
C547     C      0.738380000000     0.524810000000     0.892840000000    -0.00733332 
C548     C      0.769290000000     0.473870000000     0.887880000000     0.0943638  
C549     C      0.739010000000     0.975890000000     0.610010000000    -0.0107689  
C550     C      0.782150000000     0.517060000000     0.608970000000    -0.0262987  
C551     C      0.724630000000     0.991450000000     0.639220000000    -0.00141305 
C552     C      0.766960000000     0.533560000000     0.638230000000     0.0942937  
C553     C      0.516250000000     0.732320000000     0.893750000000    -0.00746673 
C554     C      0.989020000000     0.786360000000     0.895610000000    -0.0282636  
C555     C      0.528790000000     0.744880000000     0.862270000000    -0.000982085
C556     C      0.979020000000     0.779300000000     0.860940000000     0.0980699  
C557     C      0.505840000000     0.721150000000     0.613220000000    -0.00923761 
C558     C      0.532620000000     0.774510000000     0.612040000000    -0.0308162  
C559     C      0.987740000000     0.730890000000     0.643040000000    -0.00857874 
C560     C      0.015980000000     0.783420000000     0.643310000000     0.0965089  
C561     C      0.607410000000     0.495910000000     0.719790000000    -0.0104498  
C562     C      0.607310000000     0.529640000000     0.769130000000    -0.0314711  
C563     C      0.638090000000     0.980010000000     0.730800000000    -0.00437931 
C564     C      0.639180000000     0.014800000000     0.778990000000     0.0933929  
C565     C      0.888170000000     0.990690000000     0.778530000000    -0.00358696 
C566     C      0.891500000000     0.538110000000     0.743010000000    -0.0315422  
C567     C      0.857660000000     0.980170000000     0.762280000000    -0.00638205 
C568     C      0.857970000000     0.530980000000     0.730020000000     0.0968674  
C569     C      0.531630000000     0.867290000000     0.757200000000    -0.00900946 
C570     C      0.983440000000     0.863700000000     0.722530000000    -0.0331886  
C571     C      0.518210000000     0.896970000000     0.772980000000    -0.00567748 
C572     C      0.971370000000     0.895550000000     0.736120000000     0.0951015  
C573     C      0.531280000000     0.645260000000     0.747380000000    -0.00985781 
C574     C      0.981650000000     0.648430000000     0.780260000000    -0.0328505  
C575     C      0.518590000000     0.615560000000     0.731050000000    -0.00482077 
C576     C      0.970520000000     0.616450000000     0.766150000000     0.0945064  
H1       H      0.394480000000     0.256070000000     0.055370000000     0.0397529  
H2       H      0.350990000000     0.220950000000     0.049300000000     0.0454961  
H3       H      0.387590000000     0.296540000000     0.506170000000     0.0370013  
H4       H      0.350020000000     0.277490000000     0.465350000000     0.0680933  
H5       H      0.412250000000     0.218750000000     0.045980000000     0.039555   
H6       H      0.368000000000     0.202210000000     0.515390000000     0.0423424  
H7       H      0.371110000000     0.240510000000     0.462070000000     0.0713114  
H8       H      0.141790000000     0.203880000000     0.007620000000     0.0379936  
H9       H      0.098970000000     0.209310000000     0.971210000000     0.0440954  
H10      H      0.138420000000     0.257960000000     0.044150000000     0.0377127  
H11      H      0.101630000000     0.297500000000     0.521550000000     0.0682265  
H12      H      0.159900000000     0.209330000000     0.969750000000     0.040444   
H13      H      0.117500000000     0.241760000000     0.451210000000     0.0399162  
H14      H      0.121910000000     0.296330000000     0.484060000000     0.066836   
H15      H      0.303440000000     0.380840000000     0.494330000000     0.049184   
H16      H      0.278450000000     0.342330000000     0.458440000000     0.0487354  
H17      H      0.275750000000     0.383820000000     0.047600000000     0.0343893  
H18      H      0.236440000000     0.342480000000     0.050710000000     0.0759015  
H19      H      0.285650000000     0.401020000000     0.461300000000     0.0628719  
H20      H      0.241260000000     0.363120000000     0.460750000000     0.058297   
H21      H      0.212760000000     0.360320000000     0.020560000000     0.0847653  
H22      H      0.243570000000     0.113550000000     0.454420000000     0.0388941  
H23      H      0.285040000000     0.151790000000     0.463290000000     0.0454598  
H24      H      0.205010000000     0.115570000000     0.504130000000     0.0339928  
H25      H      0.225410000000     0.151370000000     0.045430000000     0.0660339  
H26      H      0.279850000000     0.092100000000     0.459080000000     0.0415695  
H27      H      0.299600000000     0.130270000000     0.996820000000     0.0445483  
H28      H      0.261620000000     0.129060000000     0.048370000000     0.0682774  
H29      H      0.258820000000     0.041360000000     0.391260000000     0.0404244  
H30      H      0.223420000000     0.043440000000     0.347310000000     0.0568696  
H31      H      0.291880000000     0.986360000000     0.382340000000     0.038342   
H32      H      0.268780000000     0.452860000000     0.341210000000     0.0585067  
H33      H      0.220100000000     0.036700000000     0.407670000000     0.0414734  
H34      H      0.200730000000     0.510570000000     0.361470000000     0.0540169  
H35      H      0.230830000000     0.453370000000     0.360640000000     0.06432    
H36      H      0.205500000000     0.007680000000     0.131190000000     0.0459834  
H37      H      0.219790000000     0.465140000000     0.095570000000     0.0636242  
H38      H      0.250140000000     0.051730000000     0.129080000000     0.0485269  
H39      H      0.293110000000     0.035270000000     0.093360000000     0.0692478  
H40      H      0.213450000000     0.472950000000     0.154330000000     0.0443421  
H41      H      0.254640000000     0.456270000000     0.118070000000     0.0560432  
H42      H      0.301060000000     0.500490000000     0.116770000000     0.0680222  
H43      H      0.047840000000     0.262470000000     0.366880000000     0.0400411  
H44      H      0.036320000000     0.221940000000     0.407330000000     0.0379497  
H45      H      0.477360000000     0.302680000000     0.348670000000     0.0305749  
H46      H      0.508320000000     0.304290000000     0.395240000000     0.0480167  
H47      H      0.039350000000     0.224830000000     0.348760000000     0.0420361  
H48      H      0.999130000000     0.212830000000     0.389420000000     0.060811   
H49      H      0.469110000000     0.297260000000     0.408970000000     0.0783777  
H50      H      0.464650000000     0.241380000000     0.135940000000     0.0435578  
H51      H      0.490760000000     0.204820000000     0.099070000000     0.0426421  
H52      H      0.493810000000     0.295990000000     0.136440000000     0.0359449  
H53      H      0.035890000000     0.296150000000     0.097350000000     0.0689151  
H54      H      0.482970000000     0.209460000000     0.157680000000     0.0382239  
H55      H      0.027590000000     0.208150000000     0.120410000000     0.0447147  
H56      H      0.056560000000     0.264920000000     0.117210000000     0.066353   
H57      H      0.132020000000     0.458340000000     0.244530000000     0.0433413  
H58      H      0.093040000000     0.978280000000     0.206480000000     0.046654   
H59      H      0.133140000000     0.494090000000     0.294260000000     0.033414   
H60      H      0.093260000000     0.535210000000     0.290690000000     0.0669744  
H61      H      0.152120000000     0.972720000000     0.209690000000     0.0394897  
H62      H      0.113490000000     0.015670000000     0.203450000000     0.0456455  
H63      H      0.111600000000     0.052420000000     0.256620000000     0.0637178  
H64      H      0.363710000000     0.464060000000     0.242310000000     0.0534971  
H65      H      0.401580000000     0.469390000000     0.286450000000     0.0449621  
H66      H      0.361720000000     0.019180000000     0.206730000000     0.0465332  
H67      H      0.406190000000     0.048830000000     0.223920000000     0.067643   
H68      H      0.343170000000     0.466560000000     0.279600000000     0.0441077  
H69      H      0.382100000000     0.505190000000     0.299680000000     0.0512999  
H70      H      0.390110000000     0.056010000000     0.262270000000     0.076301   
H71      H      0.504270000000     0.389770000000     0.294130000000     0.0437368  
H72      H      0.045930000000     0.354000000000     0.274880000000     0.0448788  
H73      H      0.454970000000     0.389170000000     0.255790000000     0.0344126  
H74      H      0.462900000000     0.348290000000     0.216650000000     0.0695146  
H75      H      0.038250000000     0.412070000000     0.281070000000     0.0413031  
H76      H      0.047460000000     0.374620000000     0.237470000000     0.0519483  
H77      H      0.996440000000     0.368030000000     0.200080000000     0.075211   
H78      H      0.505190000000     0.122750000000     0.209550000000     0.0433793  
H79      H      0.046020000000     0.158740000000     0.230200000000     0.0450201  
H80      H      0.454850000000     0.122630000000     0.245830000000     0.0362786  
H81      H      0.460700000000     0.163650000000     0.285070000000     0.0709048  
H82      H      0.038920000000     0.100550000000     0.223510000000     0.0398688  
H83      H      0.046580000000     0.137960000000     0.267530000000     0.0471233  
H84      H      0.993540000000     0.144250000000     0.303350000000     0.0656977  
H85      H      0.394480000000     0.256070000000     0.555370000000     0.0398636  
H86      H      0.350990000000     0.220950000000     0.549310000000     0.0455168  
H87      H      0.387590000000     0.296540000000     0.006170000000     0.0337681  
H88      H      0.350020000000     0.277490000000     0.965360000000     0.0684294  
H89      H      0.412250000000     0.218750000000     0.545980000000     0.0397074  
H90      H      0.368000000000     0.202210000000     0.015390000000     0.0416115  
H91      H      0.371110000000     0.240510000000     0.962060000000     0.0717295  
H92      H      0.141790000000     0.203880000000     0.507630000000     0.0414144  
H93      H      0.098970000000     0.209310000000     0.471210000000     0.0431432  
H94      H      0.138420000000     0.257960000000     0.544150000000     0.0382029  
H95      H      0.101630000000     0.297500000000     0.021550000000     0.0690693  
H96      H      0.159900000000     0.209330000000     0.469750000000     0.0410588  
H97      H      0.117500000000     0.241760000000     0.951210000000     0.0405293  
H98      H      0.121910000000     0.296330000000     0.984060000000     0.0705685  
H99      H      0.303440000000     0.380840000000     0.994330000000     0.0500574  
H100     H      0.278450000000     0.342330000000     0.958440000000     0.0487403  
H101     H      0.275750000000     0.383820000000     0.547610000000     0.0347959  
H102     H      0.236440000000     0.342480000000     0.550710000000     0.0758185  
H103     H      0.285650000000     0.401020000000     0.961300000000     0.062952   
H104     H      0.241260000000     0.363120000000     0.960750000000     0.0587529  
H105     H      0.212760000000     0.360320000000     0.520560000000     0.0851185  
H106     H      0.243570000000     0.113550000000     0.954420000000     0.0394813  
H107     H      0.285040000000     0.151790000000     0.963290000000     0.0454283  
H108     H      0.205010000000     0.115570000000     0.004130000000     0.0334955  
H109     H      0.225410000000     0.151370000000     0.545430000000     0.0661051  
H110     H      0.279850000000     0.092100000000     0.959080000000     0.0417509  
H111     H      0.299600000000     0.130270000000     0.496820000000     0.0438528  
H112     H      0.261620000000     0.129060000000     0.548370000000     0.0687725  
H113     H      0.258820000000     0.041360000000     0.891260000000     0.0405025  
H114     H      0.223420000000     0.043440000000     0.847310000000     0.0569332  
H115     H      0.291880000000     0.986360000000     0.882340000000     0.038389   
H116     H      0.268780000000     0.452860000000     0.841210000000     0.0585498  
H117     H      0.220100000000     0.036700000000     0.907680000000     0.0417648  
H118     H      0.200730000000     0.510570000000     0.861470000000     0.0541774  
H119     H      0.230830000000     0.453370000000     0.860640000000     0.0644457  
H120     H      0.205500000000     0.007680000000     0.631190000000     0.0460134  
H121     H      0.219790000000     0.465140000000     0.595580000000     0.0636662  
H122     H      0.250140000000     0.051730000000     0.629080000000     0.0485446  
H123     H      0.293110000000     0.035270000000     0.593360000000     0.0695532  
H124     H      0.213450000000     0.472950000000     0.654330000000     0.0443484  
H125     H      0.254640000000     0.456270000000     0.618080000000     0.0560893  
H126     H      0.301060000000     0.500490000000     0.616770000000     0.0681853  
H127     H      0.047840000000     0.262470000000     0.866880000000     0.0401451  
H128     H      0.036320000000     0.221940000000     0.907330000000     0.0381743  
H129     H      0.477360000000     0.302680000000     0.848670000000     0.0306294  
H130     H      0.508320000000     0.304290000000     0.895240000000     0.0482811  
H131     H      0.039350000000     0.224830000000     0.848760000000     0.0421044  
H132     H      0.999130000000     0.212830000000     0.889420000000     0.0609891  
H133     H      0.469110000000     0.297260000000     0.908970000000     0.0786325  
H134     H      0.464650000000     0.241380000000     0.635940000000     0.0435815  
H135     H      0.490760000000     0.204820000000     0.599070000000     0.0427522  
H136     H      0.493810000000     0.295990000000     0.636440000000     0.0359908  
H137     H      0.035890000000     0.296150000000     0.597340000000     0.0690171  
H138     H      0.482970000000     0.209460000000     0.657680000000     0.038258   
H139     H      0.027590000000     0.208150000000     0.620410000000     0.0448109  
H140     H      0.056560000000     0.264920000000     0.617210000000     0.0664161  
H141     H      0.132020000000     0.458340000000     0.744530000000     0.0433698  
H142     H      0.093040000000     0.978280000000     0.706480000000     0.0467007  
H143     H      0.133140000000     0.494090000000     0.794260000000     0.033494   
H144     H      0.093260000000     0.535210000000     0.790690000000     0.0670688  
H145     H      0.152120000000     0.972720000000     0.709690000000     0.0395029  
H146     H      0.113490000000     0.015670000000     0.703450000000     0.0456806  
H147     H      0.111600000000     0.052420000000     0.756620000000     0.0637374  
H148     H      0.363710000000     0.464060000000     0.742310000000     0.0535049  
H149     H      0.401580000000     0.469390000000     0.786450000000     0.0450279  
H150     H      0.361720000000     0.019180000000     0.706730000000     0.0465798  
H151     H      0.406190000000     0.048830000000     0.723920000000     0.0676762  
H152     H      0.343170000000     0.466560000000     0.779600000000     0.044126   
H153     H      0.382100000000     0.505190000000     0.799680000000     0.0513825  
H154     H      0.390110000000     0.056010000000     0.762270000000     0.0763177  
H155     H      0.504270000000     0.389770000000     0.794130000000     0.0438306  
H156     H      0.045930000000     0.354000000000     0.774880000000     0.0449317  
H157     H      0.454970000000     0.389170000000     0.755790000000     0.0344344  
H158     H      0.462900000000     0.348290000000     0.716650000000     0.069529   
H159     H      0.038250000000     0.412070000000     0.781070000000     0.0413826  
H160     H      0.047460000000     0.374620000000     0.737480000000     0.0519731  
H161     H      0.996440000000     0.368030000000     0.700080000000     0.0752355  
H162     H      0.505190000000     0.122750000000     0.709550000000     0.0434576  
H163     H      0.046020000000     0.158740000000     0.730190000000     0.0450154  
H164     H      0.454850000000     0.122630000000     0.745830000000     0.0362879  
H165     H      0.460700000000     0.163650000000     0.785070000000     0.0709342  
H166     H      0.038920000000     0.100550000000     0.723510000000     0.0399375  
H167     H      0.046580000000     0.137960000000     0.767530000000     0.0471546  
H168     H      0.993540000000     0.144250000000     0.803350000000     0.0657733  
H169     H      0.394480000000     0.756070000000     0.055370000000     0.0397628  
H170     H      0.350990000000     0.720950000000     0.049300000000     0.0455101  
H171     H      0.387590000000     0.796540000000     0.506170000000     0.0370246  
H172     H      0.350020000000     0.777490000000     0.465350000000     0.0680988  
H173     H      0.412250000000     0.718750000000     0.045980000000     0.0395674  
H174     H      0.368000000000     0.702210000000     0.515390000000     0.042364   
H175     H      0.371110000000     0.740510000000     0.462070000000     0.0713194  
H176     H      0.141790000000     0.703880000000     0.007620000000     0.0380012  
H177     H      0.098970000000     0.709310000000     0.971210000000     0.0441118  
H178     H      0.138420000000     0.757960000000     0.044150000000     0.0377154  
H179     H      0.101630000000     0.797500000000     0.521550000000     0.0682408  
H180     H      0.159900000000     0.709330000000     0.969750000000     0.0404524  
H181     H      0.117500000000     0.741760000000     0.451210000000     0.039925   
H182     H      0.121910000000     0.796340000000     0.484060000000     0.0668435  
H183     H      0.303440000000     0.880840000000     0.494330000000     0.0492234  
H184     H      0.278450000000     0.842330000000     0.458440000000     0.0487489  
H185     H      0.275750000000     0.883820000000     0.047600000000     0.0344253  
H186     H      0.236440000000     0.842480000000     0.050710000000     0.0759104  
H187     H      0.285650000000     0.901030000000     0.461300000000     0.0628895  
H188     H      0.241260000000     0.863120000000     0.460750000000     0.0583162  
H189     H      0.212760000000     0.860320000000     0.020560000000     0.0847845  
H190     H      0.243570000000     0.613550000000     0.454420000000     0.0389372  
H191     H      0.285040000000     0.651790000000     0.463290000000     0.0454775  
H192     H      0.205010000000     0.615570000000     0.504130000000     0.034028   
H193     H      0.225410000000     0.651370000000     0.045430000000     0.0660407  
H194     H      0.279850000000     0.592100000000     0.459080000000     0.0416681  
H195     H      0.299600000000     0.630270000000     0.996820000000     0.0445865  
H196     H      0.261620000000     0.629060000000     0.048370000000     0.0682908  
H197     H      0.258820000000     0.541360000000     0.391260000000     0.0405239  
H198     H      0.223420000000     0.543440000000     0.347310000000     0.0567549  
H199     H      0.291880000000     0.486360000000     0.382340000000     0.0380508  
H200     H      0.268780000000     0.952860000000     0.341210000000     0.0586152  
H201     H      0.220100000000     0.536700000000     0.407670000000     0.0415573  
H202     H      0.200730000000     0.010570000000     0.361470000000     0.0539016  
H203     H      0.230830000000     0.953370000000     0.360640000000     0.0644827  
H204     H      0.205500000000     0.507680000000     0.131190000000     0.0471004  
H205     H      0.219790000000     0.965140000000     0.095570000000     0.0638519  
H206     H      0.250140000000     0.551730000000     0.129080000000     0.0486309  
H207     H      0.293110000000     0.535270000000     0.093360000000     0.0692137  
H208     H      0.213450000000     0.972950000000     0.154330000000     0.0441061  
H209     H      0.254640000000     0.956280000000     0.118070000000     0.0562951  
H210     H      0.301060000000     0.000490000000     0.116770000000     0.0678849  
H211     H      0.047840000000     0.762470000000     0.366880000000     0.0400472  
H212     H      0.036320000000     0.721930000000     0.407330000000     0.0379546  
H213     H      0.477360000000     0.802680000000     0.348670000000     0.0306027  
H214     H      0.508320000000     0.804290000000     0.395240000000     0.0480513  
H215     H      0.039350000000     0.724840000000     0.348760000000     0.0420498  
H216     H      0.999130000000     0.712830000000     0.389420000000     0.0608368  
H217     H      0.469110000000     0.797260000000     0.408970000000     0.0784023  
H218     H      0.464650000000     0.741380000000     0.135940000000     0.0435736  
H219     H      0.490760000000     0.704820000000     0.099070000000     0.0426189  
H220     H      0.493810000000     0.795990000000     0.136440000000     0.0359627  
H221     H      0.035890000000     0.796150000000     0.097350000000     0.0689367  
H222     H      0.482970000000     0.709460000000     0.157680000000     0.0382407  
H223     H      0.027590000000     0.708150000000     0.120410000000     0.044694   
H224     H      0.056560000000     0.764920000000     0.117210000000     0.0663563  
H225     H      0.132020000000     0.958340000000     0.244530000000     0.043455   
H226     H      0.093040000000     0.478280000000     0.206480000000     0.046757   
H227     H      0.133140000000     0.994090000000     0.294260000000     0.0344931  
H228     H      0.093260000000     0.035210000000     0.290690000000     0.0668146  
H229     H      0.152120000000     0.472720000000     0.209690000000     0.0392458  
H230     H      0.113490000000     0.515670000000     0.203450000000     0.0466414  
H231     H      0.111600000000     0.552420000000     0.256620000000     0.0637872  
H232     H      0.363710000000     0.964060000000     0.242310000000     0.0536966  
H233     H      0.401580000000     0.969390000000     0.286450000000     0.0448238  
H234     H      0.361720000000     0.519180000000     0.206730000000     0.0466821  
H235     H      0.406190000000     0.548830000000     0.223920000000     0.067676   
H236     H      0.343170000000     0.966560000000     0.279600000000     0.0442778  
H237     H      0.382100000000     0.005190000000     0.299680000000     0.0502449  
H238     H      0.390110000000     0.556010000000     0.262270000000     0.0763401  
H239     H      0.504270000000     0.889770000000     0.294130000000     0.0438131  
H240     H      0.045930000000     0.854000000000     0.274880000000     0.0449036  
H241     H      0.454970000000     0.889170000000     0.255790000000     0.0344612  
H242     H      0.462900000000     0.848290000000     0.216650000000     0.0695266  
H243     H      0.038250000000     0.912070000000     0.281070000000     0.0414286  
H244     H      0.047460000000     0.874620000000     0.237470000000     0.0519873  
H245     H      0.996440000000     0.868030000000     0.200080000000     0.0752469  
H246     H      0.505190000000     0.622750000000     0.209550000000     0.0433968  
H247     H      0.046020000000     0.658740000000     0.230200000000     0.0450239  
H248     H      0.454850000000     0.622630000000     0.245830000000     0.0362811  
H249     H      0.460700000000     0.663650000000     0.285070000000     0.0709091  
H250     H      0.038920000000     0.600550000000     0.223510000000     0.0398851  
H251     H      0.046580000000     0.637960000000     0.267530000000     0.0471268  
H252     H      0.993540000000     0.644250000000     0.303350000000     0.0657118  
H253     H      0.394480000000     0.756070000000     0.555370000000     0.0398735  
H254     H      0.350990000000     0.720950000000     0.549310000000     0.045531   
H255     H      0.387590000000     0.796540000000     0.006170000000     0.0337897  
H256     H      0.350020000000     0.777490000000     0.965360000000     0.0684349  
H257     H      0.412250000000     0.718750000000     0.545980000000     0.0397201  
H258     H      0.368000000000     0.702210000000     0.015390000000     0.0416321  
H259     H      0.371110000000     0.740510000000     0.962060000000     0.0717381  
H260     H      0.141790000000     0.703880000000     0.507630000000     0.0414261  
H261     H      0.098970000000     0.709310000000     0.471210000000     0.043158   
H262     H      0.138420000000     0.757960000000     0.544150000000     0.038206   
H263     H      0.101630000000     0.797500000000     0.021550000000     0.0690836  
H264     H      0.159900000000     0.709330000000     0.469750000000     0.0410677  
H265     H      0.117500000000     0.741760000000     0.951210000000     0.0405388  
H266     H      0.121910000000     0.796340000000     0.984060000000     0.0705766  
H267     H      0.303440000000     0.880840000000     0.994330000000     0.0500968  
H268     H      0.278450000000     0.842330000000     0.958440000000     0.0487537  
H269     H      0.275750000000     0.883820000000     0.547610000000     0.0348319  
H270     H      0.236440000000     0.842480000000     0.550710000000     0.0758273  
H271     H      0.285650000000     0.901030000000     0.961300000000     0.0629701  
H272     H      0.241260000000     0.863120000000     0.960750000000     0.0587719  
H273     H      0.212760000000     0.860320000000     0.520560000000     0.0851377  
H274     H      0.243570000000     0.613550000000     0.954420000000     0.0395258  
H275     H      0.285040000000     0.651790000000     0.963290000000     0.0454459  
H276     H      0.205010000000     0.615570000000     0.004130000000     0.0335299  
H277     H      0.225410000000     0.651370000000     0.545430000000     0.0661121  
H278     H      0.279850000000     0.592100000000     0.959080000000     0.0418504  
H279     H      0.299600000000     0.630270000000     0.496820000000     0.0438893  
H280     H      0.261620000000     0.629060000000     0.548370000000     0.0687871  
H281     H      0.258820000000     0.541360000000     0.891260000000     0.0406027  
H282     H      0.223420000000     0.543440000000     0.847310000000     0.0568182  
H283     H      0.291880000000     0.486360000000     0.882340000000     0.0380975  
H284     H      0.268780000000     0.952860000000     0.841210000000     0.0586585  
H285     H      0.220100000000     0.536700000000     0.907680000000     0.0418501  
H286     H      0.200730000000     0.010570000000     0.861470000000     0.0540606  
H287     H      0.230830000000     0.953370000000     0.860640000000     0.0646088  
H288     H      0.205500000000     0.507680000000     0.631190000000     0.047133   
H289     H      0.219790000000     0.965140000000     0.595580000000     0.0638941  
H290     H      0.250140000000     0.551730000000     0.629080000000     0.0486488  
H291     H      0.293110000000     0.535270000000     0.593360000000     0.0695197  
H292     H      0.213450000000     0.972950000000     0.654330000000     0.0441116  
H293     H      0.254640000000     0.956280000000     0.618080000000     0.0563414  
H294     H      0.301060000000     0.000490000000     0.616770000000     0.068047   
H295     H      0.047840000000     0.762470000000     0.866880000000     0.0401512  
H296     H      0.036320000000     0.721930000000     0.907330000000     0.0381797  
H297     H      0.477360000000     0.802680000000     0.848670000000     0.0306571  
H298     H      0.508320000000     0.804290000000     0.895240000000     0.0483157  
H299     H      0.039350000000     0.724840000000     0.848760000000     0.0421182  
H300     H      0.999130000000     0.712830000000     0.889420000000     0.0610153  
H301     H      0.469110000000     0.797260000000     0.908970000000     0.0786572  
H302     H      0.464650000000     0.741380000000     0.635940000000     0.0435974  
H303     H      0.490760000000     0.704820000000     0.599070000000     0.0427293  
H304     H      0.493810000000     0.795990000000     0.636440000000     0.0360086  
H305     H      0.035890000000     0.796150000000     0.597340000000     0.0690387  
H306     H      0.482970000000     0.709460000000     0.657680000000     0.0382747  
H307     H      0.027590000000     0.708150000000     0.620410000000     0.0447904  
H308     H      0.056560000000     0.764920000000     0.617210000000     0.0664195  
H309     H      0.132020000000     0.958340000000     0.744530000000     0.0434838  
H310     H      0.093040000000     0.478280000000     0.706480000000     0.0468041  
H311     H      0.133140000000     0.994090000000     0.794260000000     0.0345759  
H312     H      0.093260000000     0.035210000000     0.790690000000     0.066908   
H313     H      0.152120000000     0.472720000000     0.709690000000     0.0392587  
H314     H      0.113490000000     0.515670000000     0.703450000000     0.0466792  
H315     H      0.111600000000     0.552420000000     0.756620000000     0.063807   
H316     H      0.363710000000     0.964060000000     0.742310000000     0.0537047  
H317     H      0.401580000000     0.969390000000     0.786450000000     0.0448889  
H318     H      0.361720000000     0.519180000000     0.706730000000     0.0467295  
H319     H      0.406190000000     0.548830000000     0.723920000000     0.0677093  
H320     H      0.343170000000     0.966560000000     0.779600000000     0.0442965  
H321     H      0.382100000000     0.005190000000     0.799680000000     0.0503234  
H322     H      0.390110000000     0.556010000000     0.762270000000     0.076357   
H323     H      0.504270000000     0.889770000000     0.794130000000     0.043907   
H324     H      0.045930000000     0.854000000000     0.774880000000     0.0449566  
H325     H      0.454970000000     0.889170000000     0.755790000000     0.0344831  
H326     H      0.462900000000     0.848290000000     0.716650000000     0.069541   
H327     H      0.038250000000     0.912070000000     0.781070000000     0.0415083  
H328     H      0.047460000000     0.874620000000     0.737480000000     0.0520121  
H329     H      0.996440000000     0.868030000000     0.700080000000     0.0752713  
H330     H      0.505190000000     0.622750000000     0.709550000000     0.0434751  
H331     H      0.046020000000     0.658740000000     0.730190000000     0.0450192  
H332     H      0.454850000000     0.622630000000     0.745830000000     0.0362904  
H333     H      0.460700000000     0.663650000000     0.785070000000     0.0709386  
H334     H      0.038920000000     0.600550000000     0.723510000000     0.0399539  
H335     H      0.046580000000     0.637960000000     0.767530000000     0.0471582  
H336     H      0.993540000000     0.644250000000     0.803350000000     0.0657877  
H337     H      0.894470000000     0.256070000000     0.055370000000     0.039652   
H338     H      0.850980000000     0.220950000000     0.049300000000     0.0454573  
H339     H      0.887600000000     0.296540000000     0.506170000000     0.0369323  
H340     H      0.850020000000     0.277490000000     0.465350000000     0.0680723  
H341     H      0.912240000000     0.218750000000     0.045980000000     0.0394054  
H342     H      0.868000000000     0.202210000000     0.515390000000     0.0422733  
H343     H      0.871120000000     0.240510000000     0.462070000000     0.0712661  
H344     H      0.641790000000     0.203880000000     0.007620000000     0.0379668  
H345     H      0.598970000000     0.209310000000     0.971210000000     0.0440063  
H346     H      0.638420000000     0.257960000000     0.044150000000     0.0377043  
H347     H      0.601630000000     0.297500000000     0.521550000000     0.0681749  
H348     H      0.659900000000     0.209330000000     0.969750000000     0.0404209  
H349     H      0.617500000000     0.241760000000     0.451210000000     0.0398904  
H350     H      0.621910000000     0.296330000000     0.484060000000     0.0667975  
H351     H      0.803440000000     0.380840000000     0.494330000000     0.0491426  
H352     H      0.778450000000     0.342330000000     0.458440000000     0.0487207  
H353     H      0.775750000000     0.383820000000     0.047600000000     0.0343898  
H354     H      0.736440000000     0.342480000000     0.050710000000     0.0758781  
H355     H      0.785650000000     0.401020000000     0.461300000000     0.0628526  
H356     H      0.741260000000     0.363120000000     0.460750000000     0.0582909  
H357     H      0.712760000000     0.360320000000     0.020560000000     0.0847275  
H358     H      0.743570000000     0.113550000000     0.454420000000     0.0388862  
H359     H      0.785040000000     0.151790000000     0.463290000000     0.0454085  
H360     H      0.705010000000     0.115570000000     0.504130000000     0.0339582  
H361     H      0.725410000000     0.151370000000     0.045430000000     0.0660237  
H362     H      0.779850000000     0.092100000000     0.459080000000     0.0415545  
H363     H      0.799600000000     0.130270000000     0.996820000000     0.0444741  
H364     H      0.761620000000     0.129060000000     0.048370000000     0.0682676  
H365     H      0.758820000000     0.041360000000     0.391260000000     0.0404064  
H366     H      0.723420000000     0.043440000000     0.347310000000     0.056859   
H367     H      0.791880000000     0.986360000000     0.382340000000     0.0383195  
H368     H      0.768780000000     0.452860000000     0.341210000000     0.0584973  
H369     H      0.720100000000     0.036700000000     0.407670000000     0.041434   
H370     H      0.700730000000     0.510570000000     0.361470000000     0.0539816  
H371     H      0.730830000000     0.453370000000     0.360640000000     0.0643036  
H372     H      0.705500000000     0.007680000000     0.131190000000     0.045934   
H373     H      0.719790000000     0.465140000000     0.095570000000     0.0635913  
H374     H      0.750140000000     0.051730000000     0.129080000000     0.0485166  
H375     H      0.793110000000     0.035270000000     0.093360000000     0.0692328  
H376     H      0.713450000000     0.472950000000     0.154330000000     0.0443247  
H377     H      0.754640000000     0.456270000000     0.118070000000     0.0560212  
H378     H      0.801060000000     0.500490000000     0.116770000000     0.0680006  
H379     H      0.547840000000     0.262470000000     0.366880000000     0.0399047  
H380     H      0.536320000000     0.221940000000     0.407330000000     0.0382236  
H381     H      0.977360000000     0.302680000000     0.348670000000     0.0301623  
H382     H      0.008320000000     0.304290000000     0.395240000000     0.0496193  
H383     H      0.539350000000     0.224830000000     0.348760000000     0.0417334  
H384     H      0.499130000000     0.212830000000     0.389420000000     0.0623925  
H385     H      0.969110000000     0.297260000000     0.408970000000     0.0785982  
H386     H      0.964660000000     0.241380000000     0.135940000000     0.0439739  
H387     H      0.990760000000     0.204820000000     0.099070000000     0.0406791  
H388     H      0.993810000000     0.295990000000     0.136440000000     0.0344332  
H389     H      0.535890000000     0.296150000000     0.097350000000     0.068655   
H390     H      0.982980000000     0.209460000000     0.157680000000     0.038444   
H391     H      0.527590000000     0.208150000000     0.120410000000     0.0452574  
H392     H      0.556560000000     0.264920000000     0.117210000000     0.0663396  
H393     H      0.632020000000     0.458340000000     0.244530000000     0.0432949  
H394     H      0.593040000000     0.978280000000     0.206480000000     0.0464778  
H395     H      0.633140000000     0.494090000000     0.294260000000     0.0333643  
H396     H      0.593260000000     0.535210000000     0.290690000000     0.0668061  
H397     H      0.652120000000     0.972720000000     0.209690000000     0.0394642  
H398     H      0.613490000000     0.015670000000     0.203450000000     0.0455278  
H399     H      0.611600000000     0.052420000000     0.256620000000     0.0636293  
H400     H      0.863710000000     0.464060000000     0.242310000000     0.0534798  
H401     H      0.901580000000     0.469390000000     0.286450000000     0.0448854  
H402     H      0.861720000000     0.019180000000     0.206730000000     0.0465012  
H403     H      0.906190000000     0.048830000000     0.223920000000     0.0675662  
H404     H      0.843170000000     0.466560000000     0.279600000000     0.0440891  
H405     H      0.882100000000     0.505190000000     0.299680000000     0.0512539  
H406     H      0.890100000000     0.056010000000     0.262270000000     0.0762892  
H407     H      0.004270000000     0.389770000000     0.294130000000     0.0440791  
H408     H      0.545930000000     0.354000000000     0.274880000000     0.0448022  
H409     H      0.954970000000     0.389170000000     0.255790000000     0.0341632  
H410     H      0.962900000000     0.348290000000     0.216650000000     0.0695476  
H411     H      0.538250000000     0.412070000000     0.281070000000     0.0413031  
H412     H      0.547460000000     0.374620000000     0.237470000000     0.0516663  
H413     H      0.496440000000     0.368030000000     0.200080000000     0.0755016  
H414     H      0.005190000000     0.122750000000     0.209550000000     0.0437111  
H415     H      0.546020000000     0.158740000000     0.230200000000     0.0449187  
H416     H      0.954850000000     0.122630000000     0.245830000000     0.0360188  
H417     H      0.960700000000     0.163650000000     0.285070000000     0.0709755  
H418     H      0.538920000000     0.100550000000     0.223510000000     0.0398578  
H419     H      0.546580000000     0.137960000000     0.267530000000     0.0467981  
H420     H      0.493540000000     0.144250000000     0.303350000000     0.0659141  
H421     H      0.894470000000     0.256070000000     0.555370000000     0.03976    
H422     H      0.850980000000     0.220950000000     0.549310000000     0.0454774  
H423     H      0.887600000000     0.296540000000     0.006170000000     0.033728   
H424     H      0.850020000000     0.277490000000     0.965360000000     0.0684057  
H425     H      0.912240000000     0.218750000000     0.545980000000     0.039554   
H426     H      0.868000000000     0.202210000000     0.015390000000     0.0415489  
H427     H      0.871120000000     0.240510000000     0.962060000000     0.07168    
H428     H      0.641790000000     0.203880000000     0.507630000000     0.0413721  
H429     H      0.598970000000     0.209310000000     0.471210000000     0.0430583  
H430     H      0.638420000000     0.257960000000     0.544150000000     0.0381925  
H431     H      0.601630000000     0.297500000000     0.021550000000     0.069014   
H432     H      0.659900000000     0.209330000000     0.469750000000     0.0410333  
H433     H      0.617500000000     0.241760000000     0.951210000000     0.0405005  
H434     H      0.621910000000     0.296330000000     0.984060000000     0.070514   
H435     H      0.803440000000     0.380840000000     0.994330000000     0.0500101  
H436     H      0.778450000000     0.342330000000     0.958440000000     0.0487254  
H437     H      0.775750000000     0.383820000000     0.547610000000     0.0347933  
H438     H      0.736440000000     0.342480000000     0.550710000000     0.0757955  
H439     H      0.785650000000     0.401020000000     0.961300000000     0.062932   
H440     H      0.741260000000     0.363120000000     0.960750000000     0.0587446  
H441     H      0.712760000000     0.360320000000     0.520560000000     0.0850789  
H442     H      0.743570000000     0.113550000000     0.954420000000     0.0394705  
H443     H      0.785040000000     0.151790000000     0.963290000000     0.0453767  
H444     H      0.705010000000     0.115570000000     0.004130000000     0.0334635  
H445     H      0.725410000000     0.151370000000     0.545430000000     0.0660947  
H446     H      0.779850000000     0.092100000000     0.959080000000     0.0417348  
H447     H      0.799600000000     0.130270000000     0.496820000000     0.0437832  
H448     H      0.761620000000     0.129060000000     0.548370000000     0.0687593  
H449     H      0.758820000000     0.041360000000     0.891260000000     0.040484   
H450     H      0.723420000000     0.043440000000     0.847310000000     0.0569223  
H451     H      0.791880000000     0.986360000000     0.882340000000     0.0383659  
H452     H      0.768780000000     0.452860000000     0.841210000000     0.05854    
H453     H      0.720100000000     0.036700000000     0.907680000000     0.041724   
H454     H      0.700730000000     0.510570000000     0.861470000000     0.0541413  
H455     H      0.730830000000     0.453370000000     0.860640000000     0.0644287  
H456     H      0.705500000000     0.007680000000     0.631190000000     0.0459637  
H457     H      0.719790000000     0.465140000000     0.595580000000     0.063633   
H458     H      0.750140000000     0.051730000000     0.629080000000     0.0485342  
H459     H      0.793110000000     0.035270000000     0.593360000000     0.0695357  
H460     H      0.713450000000     0.472950000000     0.654330000000     0.0443309  
H461     H      0.754640000000     0.456270000000     0.618080000000     0.0560668  
H462     H      0.801060000000     0.500490000000     0.616770000000     0.0681622  
H463     H      0.547840000000     0.262470000000     0.866880000000     0.0400066  
H464     H      0.536320000000     0.221940000000     0.907330000000     0.0384514  
H465     H      0.977360000000     0.302680000000     0.848670000000     0.030211   
H466     H      0.008320000000     0.304290000000     0.895240000000     0.0499032  
H467     H      0.539350000000     0.224830000000     0.848760000000     0.0417981  
H468     H      0.499130000000     0.212830000000     0.889420000000     0.0625928  
H469     H      0.969110000000     0.297260000000     0.908970000000     0.0788547  
H470     H      0.964660000000     0.241380000000     0.635940000000     0.0440026  
H471     H      0.990760000000     0.204820000000     0.599070000000     0.040761   
H472     H      0.993810000000     0.295990000000     0.636440000000     0.034458   
H473     H      0.535890000000     0.296150000000     0.597340000000     0.0687541  
H474     H      0.982980000000     0.209460000000     0.657680000000     0.0384803  
H475     H      0.527590000000     0.208150000000     0.620410000000     0.045361   
H476     H      0.556560000000     0.264920000000     0.617210000000     0.0664025  
H477     H      0.632020000000     0.458340000000     0.744530000000     0.0433229  
H478     H      0.593040000000     0.978280000000     0.706480000000     0.0465227  
H479     H      0.633140000000     0.494090000000     0.794260000000     0.0334437  
H480     H      0.593260000000     0.535210000000     0.790690000000     0.0668987  
H481     H      0.652120000000     0.972720000000     0.709690000000     0.0394772  
H482     H      0.613490000000     0.015670000000     0.703450000000     0.0455619  
H483     H      0.611600000000     0.052420000000     0.756620000000     0.063648   
H484     H      0.863710000000     0.464060000000     0.742310000000     0.0534872  
H485     H      0.901580000000     0.469390000000     0.786450000000     0.0449498  
H486     H      0.861720000000     0.019180000000     0.706730000000     0.0465471  
H487     H      0.906190000000     0.048830000000     0.723920000000     0.0675981  
H488     H      0.843170000000     0.466560000000     0.779600000000     0.0441071  
H489     H      0.882100000000     0.505190000000     0.799680000000     0.0513355  
H490     H      0.890100000000     0.056010000000     0.762270000000     0.0763056  
H491     H      0.004270000000     0.389770000000     0.794130000000     0.0441753  
H492     H      0.545930000000     0.354000000000     0.774880000000     0.0448542  
H493     H      0.954970000000     0.389170000000     0.755790000000     0.034182   
H494     H      0.962900000000     0.348290000000     0.716650000000     0.0695622  
H495     H      0.538250000000     0.412070000000     0.781070000000     0.0413827  
H496     H      0.547460000000     0.374620000000     0.737480000000     0.0516876  
H497     H      0.496440000000     0.368030000000     0.700080000000     0.075531   
H498     H      0.005190000000     0.122750000000     0.709550000000     0.0437917  
H499     H      0.546020000000     0.158740000000     0.730190000000     0.0449131  
H500     H      0.954850000000     0.122630000000     0.745830000000     0.0360248  
H501     H      0.960700000000     0.163650000000     0.785070000000     0.0710056  
H502     H      0.538920000000     0.100550000000     0.723510000000     0.0399266  
H503     H      0.546580000000     0.137960000000     0.767530000000     0.0468258  
H504     H      0.493540000000     0.144250000000     0.803350000000     0.0659937  
H505     H      0.894470000000     0.756070000000     0.055370000000     0.0396631  
H506     H      0.850980000000     0.720950000000     0.049300000000     0.0454716  
H507     H      0.887600000000     0.796540000000     0.506170000000     0.0369567  
H508     H      0.850020000000     0.777490000000     0.465350000000     0.068078   
H509     H      0.912240000000     0.718750000000     0.045980000000     0.0394192  
H510     H      0.868000000000     0.702210000000     0.515390000000     0.0422955  
H511     H      0.871120000000     0.740510000000     0.462070000000     0.0712744  
H512     H      0.641790000000     0.703880000000     0.007620000000     0.0379748  
H513     H      0.598970000000     0.709310000000     0.971210000000     0.0440234  
H514     H      0.638420000000     0.757960000000     0.044150000000     0.037707   
H515     H      0.601630000000     0.797500000000     0.521550000000     0.0681902  
H516     H      0.659900000000     0.709330000000     0.969750000000     0.0404297  
H517     H      0.617500000000     0.741760000000     0.451210000000     0.0398995  
H518     H      0.621910000000     0.796340000000     0.484060000000     0.0668058  
H519     H      0.803440000000     0.880840000000     0.494330000000     0.0491829  
H520     H      0.778450000000     0.842330000000     0.458440000000     0.0487344  
H521     H      0.775750000000     0.883820000000     0.047600000000     0.0344265  
H522     H      0.736440000000     0.842480000000     0.050710000000     0.0758871  
H523     H      0.785650000000     0.901030000000     0.461300000000     0.0628706  
H524     H      0.741260000000     0.863120000000     0.460750000000     0.0583105  
H525     H      0.712760000000     0.860320000000     0.020560000000     0.0847472  
H526     H      0.743570000000     0.613550000000     0.454420000000     0.0389301  
H527     H      0.785040000000     0.651790000000     0.463290000000     0.0454265  
H528     H      0.705010000000     0.615570000000     0.504130000000     0.0339941  
H529     H      0.725410000000     0.651370000000     0.045430000000     0.0660306  
H530     H      0.779850000000     0.592100000000     0.459080000000     0.0416547  
H531     H      0.799600000000     0.630270000000     0.996820000000     0.0445129  
H532     H      0.761620000000     0.629060000000     0.048370000000     0.0682812  
H533     H      0.758820000000     0.541360000000     0.391260000000     0.0405074  
H534     H      0.723420000000     0.543440000000     0.347310000000     0.0567426  
H535     H      0.791880000000     0.486360000000     0.382340000000     0.0380241  
H536     H      0.768780000000     0.952860000000     0.341210000000     0.0586074  
H537     H      0.720100000000     0.536700000000     0.407670000000     0.0415194  
H538     H      0.700730000000     0.010570000000     0.361470000000     0.0538642  
H539     H      0.730830000000     0.953370000000     0.360640000000     0.0644692  
H540     H      0.705500000000     0.507680000000     0.131190000000     0.0470695  
H541     H      0.719790000000     0.965140000000     0.095570000000     0.0638231  
H542     H      0.750140000000     0.551730000000     0.129080000000     0.0486224  
H543     H      0.793110000000     0.535270000000     0.093360000000     0.0691982  
H544     H      0.713450000000     0.972950000000     0.154330000000     0.0440851  
H545     H      0.754640000000     0.956280000000     0.118070000000     0.0562767  
H546     H      0.801060000000     0.000490000000     0.116770000000     0.0678616  
H547     H      0.547840000000     0.762470000000     0.366880000000     0.0399122  
H548     H      0.536320000000     0.721930000000     0.407330000000     0.0382256  
H549     H      0.977360000000     0.802680000000     0.348670000000     0.0301953  
H550     H      0.008320000000     0.804290000000     0.395240000000     0.0496354  
H551     H      0.539350000000     0.724840000000     0.348760000000     0.0417495  
H552     H      0.499130000000     0.712830000000     0.389420000000     0.0624036  
H553     H      0.969110000000     0.797260000000     0.408970000000     0.0786204  
H554     H      0.964660000000     0.741380000000     0.135940000000     0.0439861  
H555     H      0.990760000000     0.704820000000     0.099070000000     0.0406752  
H556     H      0.993810000000     0.795990000000     0.136440000000     0.0344683  
H557     H      0.535890000000     0.796150000000     0.097350000000     0.0686801  
H558     H      0.982980000000     0.709460000000     0.157680000000     0.0384584  
H559     H      0.527590000000     0.708150000000     0.120410000000     0.0452303  
H560     H      0.556560000000     0.764920000000     0.117210000000     0.0663432  
H561     H      0.632020000000     0.958340000000     0.244530000000     0.0434118  
H562     H      0.593040000000     0.478280000000     0.206480000000     0.046581   
H563     H      0.633140000000     0.994090000000     0.294260000000     0.0344651  
H564     H      0.593260000000     0.035210000000     0.290690000000     0.0666422  
H565     H      0.652120000000     0.472720000000     0.209690000000     0.0392153  
H566     H      0.613490000000     0.515670000000     0.203450000000     0.0465449  
H567     H      0.611600000000     0.552420000000     0.256620000000     0.0637006  
H568     H      0.863710000000     0.964060000000     0.242310000000     0.0536821  
H569     H      0.901580000000     0.969390000000     0.286450000000     0.0447462  
H570     H      0.861720000000     0.519180000000     0.206730000000     0.0466522  
H571     H      0.906190000000     0.548830000000     0.223920000000     0.0676     
H572     H      0.843170000000     0.966560000000     0.279600000000     0.0442618  
H573     H      0.882100000000     0.005190000000     0.299680000000     0.0501847  
H574     H      0.890100000000     0.556010000000     0.262270000000     0.0763289  
H575     H      0.004270000000     0.889770000000     0.294130000000     0.0441508  
H576     H      0.545930000000     0.854000000000     0.274880000000     0.0448286  
H577     H      0.954970000000     0.889170000000     0.255790000000     0.0342161  
H578     H      0.962900000000     0.848290000000     0.216650000000     0.0695588  
H579     H      0.538250000000     0.912070000000     0.281070000000     0.0414303  
H580     H      0.547460000000     0.874620000000     0.237470000000     0.0517105  
H581     H      0.496440000000     0.868030000000     0.200080000000     0.0755337  
H582     H      0.005190000000     0.622750000000     0.209550000000     0.0437259  
H583     H      0.546020000000     0.658740000000     0.230200000000     0.0449231  
H584     H      0.954850000000     0.622630000000     0.245830000000     0.0360234  
H585     H      0.960700000000     0.663650000000     0.285070000000     0.0709794  
H586     H      0.538920000000     0.600550000000     0.223510000000     0.0398743  
H587     H      0.546580000000     0.637960000000     0.267530000000     0.0468039  
H588     H      0.493540000000     0.644250000000     0.303350000000     0.0659264  
H589     H      0.894470000000     0.756070000000     0.555370000000     0.0397711  
H590     H      0.850980000000     0.720950000000     0.549310000000     0.0454919  
H591     H      0.887600000000     0.796540000000     0.006170000000     0.0337507  
H592     H      0.850020000000     0.777490000000     0.965360000000     0.0684114  
H593     H      0.912240000000     0.718750000000     0.545980000000     0.0395681  
H594     H      0.868000000000     0.702210000000     0.015390000000     0.04157    
H595     H      0.871120000000     0.740510000000     0.962060000000     0.071689   
H596     H      0.641790000000     0.703880000000     0.507630000000     0.0413842  
H597     H      0.598970000000     0.709310000000     0.471210000000     0.0430738  
H598     H      0.638420000000     0.757960000000     0.544150000000     0.0381956  
H599     H      0.601630000000     0.797500000000     0.021550000000     0.0690294  
H600     H      0.659900000000     0.709330000000     0.469750000000     0.0410424  
H601     H      0.617500000000     0.741760000000     0.951210000000     0.0405103  
H602     H      0.621910000000     0.796340000000     0.984060000000     0.070523   
H603     H      0.803440000000     0.880840000000     0.994330000000     0.0500504  
H604     H      0.778450000000     0.842330000000     0.958440000000     0.048739   
H605     H      0.775750000000     0.883820000000     0.547610000000     0.03483    
H606     H      0.736440000000     0.842480000000     0.550710000000     0.0758045  
H607     H      0.785650000000     0.901030000000     0.961300000000     0.0629505  
H608     H      0.741260000000     0.863120000000     0.960750000000     0.0587641  
H609     H      0.712760000000     0.860320000000     0.520560000000     0.0850986  
H610     H      0.743570000000     0.613550000000     0.954420000000     0.0395158  
H611     H      0.785040000000     0.651790000000     0.963290000000     0.0453945  
H612     H      0.705010000000     0.615570000000     0.004130000000     0.0334986  
H613     H      0.725410000000     0.651370000000     0.545430000000     0.0661017  
H614     H      0.779850000000     0.592100000000     0.959080000000     0.0418358  
H615     H      0.799600000000     0.630270000000     0.496820000000     0.0438204  
H616     H      0.761620000000     0.629060000000     0.548370000000     0.0687741  
H617     H      0.758820000000     0.541360000000     0.891260000000     0.0405856  
H618     H      0.723420000000     0.543440000000     0.847310000000     0.0568056  
H619     H      0.791880000000     0.486360000000     0.882340000000     0.0380702  
H620     H      0.768780000000     0.952860000000     0.841210000000     0.0586504  
H621     H      0.720100000000     0.536700000000     0.907680000000     0.0418108  
H622     H      0.700730000000     0.010570000000     0.861470000000     0.0540224  
H623     H      0.730830000000     0.953370000000     0.860640000000     0.0645948  
H624     H      0.705500000000     0.507680000000     0.631190000000     0.0471018  
H625     H      0.719790000000     0.965140000000     0.595580000000     0.063865   
H626     H      0.750140000000     0.551730000000     0.629080000000     0.0486402  
H627     H      0.793110000000     0.535270000000     0.593360000000     0.0695017  
H628     H      0.713450000000     0.972950000000     0.654330000000     0.0440905  
H629     H      0.754640000000     0.956280000000     0.618080000000     0.0563226  
H630     H      0.801060000000     0.000490000000     0.616770000000     0.068022   
H631     H      0.547840000000     0.762470000000     0.866880000000     0.0400142  
H632     H      0.536320000000     0.721930000000     0.907330000000     0.0384538  
H633     H      0.977360000000     0.802680000000     0.848670000000     0.030244   
H634     H      0.008320000000     0.804290000000     0.895240000000     0.0499193  
H635     H      0.539350000000     0.724840000000     0.848760000000     0.0418144  
H636     H      0.499130000000     0.712830000000     0.889420000000     0.0626044  
H637     H      0.969110000000     0.797260000000     0.908970000000     0.078877   
H638     H      0.964660000000     0.741380000000     0.635940000000     0.0440148  
H639     H      0.990760000000     0.704820000000     0.599070000000     0.0407573  
H640     H      0.993810000000     0.795990000000     0.636440000000     0.0344931  
H641     H      0.535890000000     0.796150000000     0.597340000000     0.0687792  
H642     H      0.982980000000     0.709460000000     0.657680000000     0.0384948  
H643     H      0.527590000000     0.708150000000     0.620410000000     0.0453342  
H644     H      0.556560000000     0.764920000000     0.617210000000     0.0664061  
H645     H      0.632020000000     0.958340000000     0.744530000000     0.0434401  
H646     H      0.593040000000     0.478280000000     0.706480000000     0.0466263  
H647     H      0.633140000000     0.994090000000     0.794260000000     0.0345472  
H648     H      0.593260000000     0.035210000000     0.790690000000     0.0667338  
H649     H      0.652120000000     0.472720000000     0.709690000000     0.0392279  
H650     H      0.613490000000     0.515670000000     0.703450000000     0.0465817  
H651     H      0.611600000000     0.552420000000     0.756620000000     0.0637195  
H652     H      0.863710000000     0.964060000000     0.742310000000     0.0536899  
H653     H      0.901580000000     0.969390000000     0.786450000000     0.04481    
H654     H      0.861720000000     0.519180000000     0.706730000000     0.0466989  
H655     H      0.906190000000     0.548830000000     0.723920000000     0.067632   
H656     H      0.843170000000     0.966560000000     0.779600000000     0.0442801  
H657     H      0.882100000000     0.005190000000     0.799680000000     0.0502623  
H658     H      0.890100000000     0.556010000000     0.762270000000     0.0763455  
H659     H      0.004270000000     0.889770000000     0.794130000000     0.044247   
H660     H      0.545930000000     0.854000000000     0.774880000000     0.0448806  
H661     H      0.954970000000     0.889170000000     0.755790000000     0.0342349  
H662     H      0.962900000000     0.848290000000     0.716650000000     0.0695735  
H663     H      0.538250000000     0.912070000000     0.781070000000     0.0415102  
H664     H      0.547460000000     0.874620000000     0.737480000000     0.0517319  
H665     H      0.496440000000     0.868030000000     0.700080000000     0.0755631  
H666     H      0.005190000000     0.622750000000     0.709550000000     0.0438067  
H667     H      0.546020000000     0.658740000000     0.730190000000     0.0449176  
H668     H      0.954850000000     0.622630000000     0.745830000000     0.0360294  
H669     H      0.960700000000     0.663650000000     0.785070000000     0.0710095  
H670     H      0.538920000000     0.600550000000     0.723510000000     0.0399432  
H671     H      0.546580000000     0.637960000000     0.767530000000     0.0468317  
H672     H      0.493540000000     0.644250000000     0.803350000000     0.0660063  
N1       N      0.413580000000     0.254070000000     0.509420000000    -0.184196   
N2       N      0.347440000000     0.246530000000     0.005460000000    -0.175093   
N3       N      0.413780000000     0.290070000000     0.463980000000    -0.0279083  
N4       N      0.163270000000     0.248560000000     0.001960000000    -0.185213   
N5       N      0.097250000000     0.254460000000     0.494920000000    -0.175572   
N6       N      0.165950000000     0.298020000000     0.531990000000    -0.0263653  
N7       N      0.261210000000     0.405360000000     0.005450000000    -0.183076   
N8       N      0.253970000000     0.339200000000     0.502930000000    -0.171124   
N9       N      0.233780000000     0.409170000000     0.056570000000    -0.0332045  
N10      N      0.246750000000     0.089100000000     0.997800000000    -0.183466   
N11      N      0.256870000000     0.154390000000     0.505770000000    -0.175285   
N12      N      0.212220000000     0.086800000000     0.044460000000    -0.0242577  
N13      N      0.249330000000     0.995080000000     0.407600000000    -0.178705   
N14      N      0.244030000000     0.997270000000     0.340770000000    -0.171426   
N15      N      0.276450000000     0.442970000000     0.402720000000    -0.0337381  
N16      N      0.248370000000     0.010150000000     0.156570000000    -0.182836   
N17      N      0.258180000000     0.998620000000     0.091810000000    -0.17066    
N18      N      0.290800000000     0.049630000000     0.158070000000    -0.0212167  
N19      N      0.003200000000     0.260260000000     0.344290000000    -0.184505   
N20      N      0.000830000000     0.257810000000     0.411910000000    -0.166586   
N21      N      0.447680000000     0.264080000000     0.358310000000    -0.0222012  
N22      N      0.006150000000     0.254560000000     0.160690000000    -0.184496   
N23      N      0.014890000000     0.249620000000     0.095240000000    -0.175936   
N24      N      0.034900000000     0.305310000000     0.163070000000    -0.0292982  
N25      N      0.156000000000     0.501890000000     0.251070000000    -0.18498    
N26      N      0.090040000000     0.508770000000     0.247150000000    -0.17467    
N27      N      0.159010000000     0.536600000000     0.297950000000    -0.0289718  
N28      N      0.340240000000     0.507800000000     0.249880000000    -0.180187   
N29      N      0.406630000000     0.509820000000     0.256330000000    -0.172514   
N30      N      0.339920000000     0.060430000000     0.224240000000    -0.0174514  
N31      N      0.497470000000     0.414010000000     0.250730000000    -0.183393   
N32      N      0.505570000000     0.348100000000     0.244470000000    -0.17251    
N33      N      0.453130000000     0.414140000000     0.212730000000    -0.0259258  
N34      N      0.497420000000     0.098390000000     0.252680000000    -0.184001   
N35      N      0.504740000000     0.164270000000     0.259450000000    -0.174639   
N36      N      0.451640000000     0.097490000000     0.288730000000    -0.0281147  
N37      N      0.413580000000     0.254070000000     0.009420000000    -0.18604    
N38      N      0.347440000000     0.246530000000     0.505460000000    -0.174313   
N39      N      0.413780000000     0.290070000000     0.963980000000    -0.0279843  
N40      N      0.163270000000     0.248560000000     0.501960000000    -0.183438   
N41      N      0.097250000000     0.254460000000     0.994920000000    -0.17354    
N42      N      0.165950000000     0.298020000000     0.031990000000    -0.0264247  
N43      N      0.261210000000     0.405360000000     0.505450000000    -0.181467   
N44      N      0.253970000000     0.339200000000     0.002930000000    -0.172084   
N45      N      0.233780000000     0.409170000000     0.556570000000    -0.0332386  
N46      N      0.246750000000     0.089100000000     0.497800000000    -0.184679   
N47      N      0.256870000000     0.154390000000     0.005770000000    -0.176431   
N48      N      0.212220000000     0.086800000000     0.544460000000    -0.0242792  
N49      N      0.249330000000     0.995080000000     0.907600000000    -0.178629   
N50      N      0.244030000000     0.997270000000     0.840770000000    -0.171404   
N51      N      0.276450000000     0.442970000000     0.902710000000    -0.0338374  
N52      N      0.248370000000     0.010150000000     0.656570000000    -0.182847   
N53      N      0.258180000000     0.998620000000     0.591810000000    -0.170531   
N54      N      0.290800000000     0.049630000000     0.658070000000    -0.0212435  
N55      N      0.003200000000     0.260260000000     0.844290000000    -0.184498   
N56      N      0.000830000000     0.257810000000     0.911910000000    -0.166322   
N57      N      0.447680000000     0.264080000000     0.858310000000    -0.0222258  
N58      N      0.006150000000     0.254560000000     0.660690000000    -0.184487   
N59      N      0.014890000000     0.249620000000     0.595240000000    -0.175979   
N60      N      0.034900000000     0.305310000000     0.663070000000    -0.0293088  
N61      N      0.156000000000     0.501890000000     0.751070000000    -0.184975   
N62      N      0.090040000000     0.508770000000     0.747150000000    -0.174642   
N63      N      0.159010000000     0.536600000000     0.797950000000    -0.028976   
N64      N      0.340240000000     0.507800000000     0.749890000000    -0.180173   
N65      N      0.406630000000     0.509820000000     0.756330000000    -0.17249    
N66      N      0.339920000000     0.060430000000     0.724250000000    -0.0174555  
N67      N      0.497470000000     0.414010000000     0.750730000000    -0.18337    
N68      N      0.505570000000     0.348100000000     0.744470000000    -0.172502   
N69      N      0.453130000000     0.414140000000     0.712730000000    -0.0259313  
N70      N      0.497420000000     0.098390000000     0.752680000000    -0.18396    
N71      N      0.504740000000     0.164270000000     0.759450000000    -0.174639   
N72      N      0.451640000000     0.097490000000     0.788730000000    -0.0281293  
N73      N      0.413580000000     0.754070000000     0.509420000000    -0.184191   
N74      N      0.347440000000     0.746530000000     0.005460000000    -0.175084   
N75      N      0.413780000000     0.790070000000     0.463980000000    -0.0279019  
N76      N      0.163270000000     0.748560000000     0.001960000000    -0.185211   
N77      N      0.097250000000     0.754460000000     0.494920000000    -0.17557    
N78      N      0.165950000000     0.798020000000     0.531990000000    -0.0263692  
N79      N      0.261210000000     0.905360000000     0.005450000000    -0.183097   
N80      N      0.253970000000     0.839200000000     0.502930000000    -0.171117   
N81      N      0.233780000000     0.909170000000     0.056570000000    -0.0332111  
N82      N      0.246750000000     0.589100000000     0.997800000000    -0.183393   
N83      N      0.256870000000     0.654390000000     0.505770000000    -0.175286   
N84      N      0.212220000000     0.586800000000     0.044460000000    -0.0242175  
N85      N      0.249330000000     0.495080000000     0.407600000000    -0.179172   
N86      N      0.244030000000     0.497270000000     0.340770000000    -0.172661   
N87      N      0.276450000000     0.942970000000     0.402720000000    -0.0337481  
N88      N      0.248370000000     0.510150000000     0.156570000000    -0.182342   
N89      N      0.258180000000     0.498620000000     0.091810000000    -0.171121   
N90      N      0.290800000000     0.549630000000     0.158070000000    -0.0212353  
N91      N      0.003200000000     0.760250000000     0.344290000000    -0.184495   
N92      N      0.000830000000     0.757810000000     0.411910000000    -0.166593   
N93      N      0.447680000000     0.764080000000     0.358310000000    -0.0222085  
N94      N      0.006150000000     0.754560000000     0.160690000000    -0.184495   
N95      N      0.014890000000     0.749620000000     0.095240000000    -0.175951   
N96      N      0.034900000000     0.805310000000     0.163070000000    -0.0293015  
N97      N      0.156000000000     0.001890000000     0.251070000000    -0.185092   
N98      N      0.090040000000     0.008770000000     0.247150000000    -0.175335   
N99      N      0.159010000000     0.036600000000     0.297950000000    -0.0288663  
N100     N      0.340240000000     0.007800000000     0.249880000000    -0.180408   
N101     N      0.406630000000     0.009820000000     0.256330000000    -0.17314    
N102     N      0.339920000000     0.560430000000     0.224240000000    -0.0174738  
N103     N      0.497470000000     0.914010000000     0.250730000000    -0.183316   
N104     N      0.505570000000     0.848100000000     0.244470000000    -0.172506   
N105     N      0.453130000000     0.914140000000     0.212730000000    -0.0258772  
N106     N      0.497420000000     0.598390000000     0.252680000000    -0.184012   
N107     N      0.504740000000     0.664270000000     0.259450000000    -0.174638   
N108     N      0.451640000000     0.597490000000     0.288730000000    -0.0281154  
N109     N      0.413580000000     0.754070000000     0.009420000000    -0.186036   
N110     N      0.347440000000     0.746530000000     0.505460000000    -0.174303   
N111     N      0.413780000000     0.790070000000     0.963980000000    -0.027978   
N112     N      0.163270000000     0.748560000000     0.501960000000    -0.183434   
N113     N      0.097250000000     0.754460000000     0.994920000000    -0.173536   
N114     N      0.165950000000     0.798020000000     0.031990000000    -0.0264287  
N115     N      0.261210000000     0.905360000000     0.505450000000    -0.181488   
N116     N      0.253970000000     0.839200000000     0.002930000000    -0.172076   
N117     N      0.233780000000     0.909170000000     0.556570000000    -0.0332451  
N118     N      0.246750000000     0.589100000000     0.497800000000    -0.184609   
N119     N      0.256870000000     0.654390000000     0.005770000000    -0.176434   
N120     N      0.212220000000     0.586800000000     0.544460000000    -0.0242389  
N121     N      0.249330000000     0.495080000000     0.907600000000    -0.179097   
N122     N      0.244030000000     0.497270000000     0.840770000000    -0.172642   
N123     N      0.276450000000     0.942970000000     0.902710000000    -0.0338473  
N124     N      0.248370000000     0.510150000000     0.656570000000    -0.182352   
N125     N      0.258180000000     0.498620000000     0.591810000000    -0.170993   
N126     N      0.290800000000     0.549630000000     0.658070000000    -0.0212623  
N127     N      0.003200000000     0.760250000000     0.844290000000    -0.184488   
N128     N      0.000830000000     0.757810000000     0.911910000000    -0.166329   
N129     N      0.447680000000     0.764080000000     0.858310000000    -0.0222332  
N130     N      0.006150000000     0.754560000000     0.660690000000    -0.184486   
N131     N      0.014890000000     0.749620000000     0.595240000000    -0.175994   
N132     N      0.034900000000     0.805310000000     0.663070000000    -0.0293121  
N133     N      0.156000000000     0.001890000000     0.751070000000    -0.185087   
N134     N      0.090040000000     0.008770000000     0.747150000000    -0.175308   
N135     N      0.159010000000     0.036600000000     0.797950000000    -0.0288702  
N136     N      0.340240000000     0.007800000000     0.749890000000    -0.180395   
N137     N      0.406630000000     0.009820000000     0.756330000000    -0.173118   
N138     N      0.339920000000     0.560430000000     0.724250000000    -0.0174781  
N139     N      0.497470000000     0.914010000000     0.750730000000    -0.183292   
N140     N      0.505570000000     0.848100000000     0.744470000000    -0.172498   
N141     N      0.453130000000     0.914140000000     0.712730000000    -0.0258827  
N142     N      0.497420000000     0.598390000000     0.752680000000    -0.18397    
N143     N      0.504740000000     0.664270000000     0.759450000000    -0.174637   
N144     N      0.451640000000     0.597490000000     0.788730000000    -0.0281301  
N145     N      0.913580000000     0.254070000000     0.509420000000    -0.184304   
N146     N      0.847440000000     0.246530000000     0.005460000000    -0.175177   
N147     N      0.913780000000     0.290070000000     0.463980000000    -0.0279874  
N148     N      0.663270000000     0.248560000000     0.001960000000    -0.185205   
N149     N      0.597250000000     0.254460000000     0.494920000000    -0.175557   
N150     N      0.665950000000     0.298020000000     0.531990000000    -0.0263558  
N151     N      0.761210000000     0.405360000000     0.005450000000    -0.183075   
N152     N      0.753970000000     0.339200000000     0.502930000000    -0.171131   
N153     N      0.733780000000     0.409170000000     0.056570000000    -0.033212   
N154     N      0.746750000000     0.089100000000     0.997800000000    -0.183479   
N155     N      0.756870000000     0.154390000000     0.505770000000    -0.175308   
N156     N      0.712220000000     0.086800000000     0.044460000000    -0.0242689  
N157     N      0.749330000000     0.995080000000     0.407600000000    -0.178769   
N158     N      0.744030000000     0.997270000000     0.340770000000    -0.171409   
N159     N      0.776440000000     0.442970000000     0.402720000000    -0.0337434  
N160     N      0.748370000000     0.010150000000     0.156570000000    -0.182844   
N161     N      0.758170000000     0.998620000000     0.091810000000    -0.170663   
N162     N      0.790800000000     0.049630000000     0.158070000000    -0.0211964  
N163     N      0.503200000000     0.260260000000     0.344290000000    -0.185048   
N164     N      0.500830000000     0.257810000000     0.411910000000    -0.16738    
N165     N      0.947690000000     0.264080000000     0.358310000000    -0.0222606  
N166     N      0.506150000000     0.254560000000     0.160690000000    -0.185039   
N167     N      0.514890000000     0.249620000000     0.095240000000    -0.175701   
N168     N      0.534900000000     0.305310000000     0.163070000000    -0.0292045  
N169     N      0.656000000000     0.501890000000     0.251070000000    -0.184978   
N170     N      0.590040000000     0.508770000000     0.247150000000    -0.174818   
N171     N      0.659010000000     0.536600000000     0.297950000000    -0.0289688  
N172     N      0.840240000000     0.507800000000     0.249880000000    -0.180189   
N173     N      0.906630000000     0.509820000000     0.256330000000    -0.172486   
N174     N      0.839920000000     0.060430000000     0.224240000000    -0.0174443  
N175     N      0.997470000000     0.414010000000     0.250730000000    -0.183875   
N176     N      0.005570000000     0.348100000000     0.244470000000    -0.171982   
N177     N      0.953130000000     0.414140000000     0.212730000000    -0.0258817  
N178     N      0.997420000000     0.098390000000     0.252680000000    -0.184486   
N179     N      0.004740000000     0.164270000000     0.259450000000    -0.17397    
N180     N      0.951640000000     0.097490000000     0.288730000000    -0.0280767  
N181     N      0.913580000000     0.254070000000     0.009420000000    -0.186129   
N182     N      0.847440000000     0.246530000000     0.505460000000    -0.174405   
N183     N      0.913780000000     0.290070000000     0.963980000000    -0.0280634  
N184     N      0.663270000000     0.248560000000     0.501960000000    -0.183438   
N185     N      0.597250000000     0.254460000000     0.994920000000    -0.173534   
N186     N      0.665950000000     0.298020000000     0.031990000000    -0.0264152  
N187     N      0.761210000000     0.405360000000     0.505450000000    -0.181476   
N188     N      0.753970000000     0.339200000000     0.002930000000    -0.172084   
N189     N      0.733780000000     0.409170000000     0.556570000000    -0.0332459  
N190     N      0.746750000000     0.089100000000     0.497800000000    -0.184685   
N191     N      0.756870000000     0.154390000000     0.005770000000    -0.176447   
N192     N      0.712220000000     0.086800000000     0.544460000000    -0.02429    
N193     N      0.749330000000     0.995080000000     0.907600000000    -0.178693   
N194     N      0.744030000000     0.997270000000     0.840770000000    -0.171386   
N195     N      0.776440000000     0.442970000000     0.902710000000    -0.0338424  
N196     N      0.748370000000     0.010150000000     0.656570000000    -0.182856   
N197     N      0.758170000000     0.998620000000     0.591810000000    -0.170535   
N198     N      0.790800000000     0.049630000000     0.658070000000    -0.0212229  
N199     N      0.503200000000     0.260260000000     0.844290000000    -0.185047   
N200     N      0.500830000000     0.257810000000     0.911910000000    -0.167126   
N201     N      0.947690000000     0.264080000000     0.858310000000    -0.0222854  
N202     N      0.506150000000     0.254560000000     0.660690000000    -0.185037   
N203     N      0.514890000000     0.249620000000     0.595240000000    -0.17574    
N204     N      0.534900000000     0.305310000000     0.663070000000    -0.0292137  
N205     N      0.656000000000     0.501890000000     0.751070000000    -0.184973   
N206     N      0.590040000000     0.508770000000     0.747150000000    -0.174791   
N207     N      0.659010000000     0.536600000000     0.797950000000    -0.0289728  
N208     N      0.840240000000     0.507800000000     0.749890000000    -0.180175   
N209     N      0.906630000000     0.509820000000     0.756330000000    -0.172461   
N210     N      0.839920000000     0.060430000000     0.724250000000    -0.0174483  
N211     N      0.997470000000     0.414010000000     0.750730000000    -0.183858   
N212     N      0.005570000000     0.348100000000     0.744470000000    -0.171968   
N213     N      0.953130000000     0.414140000000     0.712730000000    -0.0258866  
N214     N      0.997420000000     0.098390000000     0.752680000000    -0.184451   
N215     N      0.004740000000     0.164270000000     0.759450000000    -0.173963   
N216     N      0.951640000000     0.097490000000     0.788730000000    -0.0280907  
N217     N      0.913580000000     0.754070000000     0.509420000000    -0.184297   
N218     N      0.847440000000     0.746530000000     0.005460000000    -0.175168   
N219     N      0.913780000000     0.790070000000     0.463980000000    -0.02798    
N220     N      0.663270000000     0.748560000000     0.001960000000    -0.185203   
N221     N      0.597250000000     0.754460000000     0.494920000000    -0.175555   
N222     N      0.665950000000     0.798020000000     0.531990000000    -0.0263599  
N223     N      0.761210000000     0.905360000000     0.005450000000    -0.183096   
N224     N      0.753970000000     0.839200000000     0.502930000000    -0.171124   
N225     N      0.733780000000     0.909170000000     0.056570000000    -0.0332188  
N226     N      0.746750000000     0.589100000000     0.997800000000    -0.183405   
N227     N      0.756870000000     0.654390000000     0.505770000000    -0.175309   
N228     N      0.712220000000     0.586800000000     0.044460000000    -0.0242279  
N229     N      0.749330000000     0.495080000000     0.407600000000    -0.179243   
N230     N      0.744030000000     0.497270000000     0.340770000000    -0.172663   
N231     N      0.776440000000     0.942970000000     0.402720000000    -0.0337536  
N232     N      0.748370000000     0.510150000000     0.156570000000    -0.182343   
N233     N      0.758170000000     0.498620000000     0.091810000000    -0.171131   
N234     N      0.790800000000     0.549630000000     0.158070000000    -0.0212153  
N235     N      0.503200000000     0.760250000000     0.344290000000    -0.185032   
N236     N      0.500830000000     0.757810000000     0.411910000000    -0.167378   
N237     N      0.947690000000     0.764080000000     0.358310000000    -0.0222676  
N238     N      0.506150000000     0.754560000000     0.160690000000    -0.185034   
N239     N      0.514890000000     0.749620000000     0.095240000000    -0.175718   
N240     N      0.534900000000     0.805310000000     0.163070000000    -0.0292089  
N241     N      0.656000000000     0.001890000000     0.251070000000    -0.185092   
N242     N      0.590040000000     0.008770000000     0.247150000000    -0.175497   
N243     N      0.659010000000     0.036600000000     0.297950000000    -0.0288611  
N244     N      0.840240000000     0.007800000000     0.249880000000    -0.180412   
N245     N      0.906630000000     0.009820000000     0.256330000000    -0.17312    
N246     N      0.839920000000     0.560430000000     0.224240000000    -0.0174671  
N247     N      0.997470000000     0.914010000000     0.250730000000    -0.18379    
N248     N      0.005570000000     0.848100000000     0.244470000000    -0.171987   
N249     N      0.953130000000     0.914140000000     0.212730000000    -0.0258329  
N250     N      0.997420000000     0.598390000000     0.252680000000    -0.184493   
N251     N      0.004740000000     0.664270000000     0.259450000000    -0.173973   
N252     N      0.951640000000     0.597490000000     0.288730000000    -0.0280777  
N253     N      0.913580000000     0.754070000000     0.009420000000    -0.186123   
N254     N      0.847440000000     0.746530000000     0.505460000000    -0.174395   
N255     N      0.913780000000     0.790070000000     0.963980000000    -0.0280562  
N256     N      0.663270000000     0.748560000000     0.501960000000    -0.183434   
N257     N      0.597250000000     0.754460000000     0.994920000000    -0.173531   
N258     N      0.665950000000     0.798020000000     0.031990000000    -0.0264193  
N259     N      0.761210000000     0.905360000000     0.505450000000    -0.181497   
N260     N      0.753970000000     0.839200000000     0.002930000000    -0.172077   
N261     N      0.733780000000     0.909170000000     0.556570000000    -0.0332526  
N262     N      0.746750000000     0.589100000000     0.497800000000    -0.184614   
N263     N      0.756870000000     0.654390000000     0.005770000000    -0.17645    
N264     N      0.712220000000     0.586800000000     0.544460000000    -0.0242489  
N265     N      0.749330000000     0.495080000000     0.907600000000    -0.179168   
N266     N      0.744030000000     0.497270000000     0.840770000000    -0.172645   
N267     N      0.776440000000     0.942970000000     0.902710000000    -0.0338525  
N268     N      0.748370000000     0.510150000000     0.656570000000    -0.182352   
N269     N      0.758170000000     0.498620000000     0.591810000000    -0.171004   
N270     N      0.790800000000     0.549630000000     0.658070000000    -0.021242   
N271     N      0.503200000000     0.760250000000     0.844290000000    -0.185031   
N272     N      0.500830000000     0.757810000000     0.911910000000    -0.167124   
N273     N      0.947690000000     0.764080000000     0.858310000000    -0.0222925  
N274     N      0.506150000000     0.754560000000     0.660690000000    -0.185031   
N275     N      0.514890000000     0.749620000000     0.595240000000    -0.175757   
N276     N      0.534900000000     0.805310000000     0.663070000000    -0.0292181  
N277     N      0.656000000000     0.001890000000     0.751070000000    -0.185088   
N278     N      0.590040000000     0.008770000000     0.747150000000    -0.175472   
N279     N      0.659010000000     0.036600000000     0.797950000000    -0.0288648  
N280     N      0.840240000000     0.007800000000     0.749890000000    -0.180399   
N281     N      0.906630000000     0.009820000000     0.756330000000    -0.173098   
N282     N      0.839920000000     0.560430000000     0.724250000000    -0.0174712  
N283     N      0.997470000000     0.914010000000     0.750730000000    -0.183773   
N284     N      0.005570000000     0.848100000000     0.744470000000    -0.171972   
N285     N      0.953130000000     0.914140000000     0.712730000000    -0.0258377  
N286     N      0.997420000000     0.598390000000     0.752680000000    -0.184457   
N287     N      0.004740000000     0.664270000000     0.759450000000    -0.173967   
N288     N      0.951640000000     0.597490000000     0.788730000000    -0.0280917  
O1       O      0.001210000000     0.051440000000     0.225940000000    -0.551031   
O2       O      0.492750000000     0.461840000000     0.225270000000    -0.532845   
O3       O      0.452420000000     0.011170000000     0.227800000000    -0.545808   
O4       O      0.041710000000     0.502560000000     0.223390000000    -0.549514   
O5       O      0.043950000000     0.010090000000     0.275650000000    -0.549861   
O6       O      0.454600000000     0.501730000000     0.279810000000    -0.54599    
O7       O      0.003340000000     0.461080000000     0.277000000000    -0.551948   
O8       O      0.495100000000     0.050680000000     0.278430000000    -0.533707   
O9       O      0.479370000000     0.250030000000     0.207420000000    -0.552411   
O10      O      0.477830000000     0.262790000000     0.296440000000    -0.539755   
O11      O      0.478890000000     0.300840000000     0.245290000000    -0.548713   
O12      O      0.478400000000     0.211770000000     0.258510000000    -0.547467   
O13      O      0.030760000000     0.211210000000     0.251540000000    -0.55443    
O14      O      0.030970000000     0.301160000000     0.254140000000    -0.549551   
O15      O      0.030030000000     0.254620000000     0.297660000000    -0.559711   
O16      O      0.031640000000     0.257860000000     0.208120000000    -0.540001   
O17      O      0.248510000000     0.481090000000     0.202100000000    -0.552468   
O18      O      0.248530000000     0.474960000000     0.291610000000    -0.55483    
O19      O      0.203720000000     0.476790000000     0.246170000000    -0.55342    
O20      O      0.293720000000     0.479640000000     0.247810000000    -0.549395   
O21      O      0.291860000000     0.032390000000     0.251070000000    -0.531937   
O22      O      0.202370000000     0.029590000000     0.250350000000    -0.539562   
O23      O      0.245670000000     0.027680000000     0.295580000000    -0.540644   
O24      O      0.248490000000     0.033980000000     0.205500000000    -0.532207   
O25      O      0.225390000000     0.495950000000     0.456190000000    -0.546063   
O26      O      0.229990000000     0.993970000000     0.046010000000    -0.541904   
O27      O      0.224240000000     0.039910000000     0.502480000000    -0.543386   
O28      O      0.231220000000     0.450150000000     0.001340000000    -0.532953   
O29      O      0.283970000000     0.454340000000     0.501030000000    -0.542403   
O30      O      0.276330000000     0.043920000000     0.994380000000    -0.554953   
O31      O      0.281980000000     0.503080000000     0.043100000000    -0.54682    
O32      O      0.278190000000     0.995620000000     0.453360000000    -0.538172   
O33      O      0.508960000000     0.225260000000     0.047250000000    -0.555308   
O34      O      0.002100000000     0.229320000000     0.457880000000    -0.549812   
O35      O      0.050210000000     0.227420000000     0.998090000000    -0.548925   
O36      O      0.460540000000     0.227300000000     0.507010000000    -0.547235   
O37      O      0.460770000000     0.280320000000     0.007940000000    -0.548088   
O38      O      0.050160000000     0.280270000000     0.501520000000    -0.557989   
O39      O      0.501480000000     0.282280000000     0.460160000000    -0.55086    
O40      O      0.009680000000     0.278190000000     0.049480000000    -0.555101   
O41      O      0.252100000000     0.202160000000     0.031070000000    -0.550426   
O42      O      0.255950000000     0.292120000000     0.029980000000    -0.54416    
O43      O      0.209770000000     0.249670000000     0.029460000000    -0.54155    
O44      O      0.299620000000     0.244630000000     0.031410000000    -0.546344   
O45      O      0.300620000000     0.248970000000     0.478720000000    -0.555029   
O46      O      0.211010000000     0.243700000000     0.476890000000    -0.549307   
O47      O      0.254300000000     0.291360000000     0.477120000000    -0.547333   
O48      O      0.258760000000     0.201370000000     0.478630000000    -0.552921   
O49      O      0.419840000000     0.267570000000     0.442660000000    -0.0951355  
O50      O      0.397120000000     0.312680000000     0.449590000000    -0.106328   
O51      O      0.172360000000     0.315970000000     0.506840000000    -0.112601   
O52      O      0.150390000000     0.315940000000     0.052780000000    -0.106035   
O53      O      0.204190000000     0.411210000000     0.045880000000    -0.0964204  
O54      O      0.232610000000     0.395740000000     0.085090000000    -0.114706   
O55      O      0.235100000000     0.079120000000     0.064770000000    -0.110344   
O56      O      0.190380000000     0.103040000000     0.060410000000    -0.112335   
O57      O      0.251320000000     0.431980000000     0.418310000000    -0.112963   
O58      O      0.300290000000     0.945980000000     0.423070000000    -0.105366   
O59      O      0.313480000000     0.029170000000     0.165960000000    -0.102697   
O60      O      0.304220000000     0.072860000000     0.141460000000    -0.0978546  
O61      O      0.446310000000     0.238450000000     0.376630000000    -0.0898439  
O62      O      0.425530000000     0.284180000000     0.368340000000    -0.095473   
O63      O      0.064380000000     0.294520000000     0.166100000000    -0.0989393  
O64      O      0.536540000000     0.333400000000     0.148750000000    -0.110475   
O65      O      0.160650000000     0.064920000000     0.284020000000    -0.103199   
O66      O      0.145620000000     0.540810000000     0.326180000000    -0.119188   
O67      O      0.338340000000     0.077550000000     0.250730000000    -0.0924783  
O68      O      0.354890000000     0.077850000000     0.202620000000    -0.0933488  
O69      O      0.469340000000     0.416670000000     0.185770000000    -0.0967359  
O70      O      0.426290000000     0.398940000000     0.206180000000    -0.111664   
O71      O      0.466880000000     0.094920000000     0.316230000000    -0.0993093  
O72      O      0.424420000000     0.112370000000     0.294390000000    -0.106698   
O73      O      0.001210000000     0.051440000000     0.725940000000    -0.550917   
O74      O      0.492750000000     0.461840000000     0.725270000000    -0.532774   
O75      O      0.452420000000     0.011170000000     0.727800000000    -0.545613   
O76      O      0.041710000000     0.502560000000     0.723390000000    -0.54942    
O77      O      0.043950000000     0.010090000000     0.775650000000    -0.549757   
O78      O      0.454600000000     0.501730000000     0.779810000000    -0.545998   
O79      O      0.003340000000     0.461080000000     0.777000000000    -0.55182    
O80      O      0.495100000000     0.050680000000     0.778430000000    -0.533624   
O81      O      0.479370000000     0.250030000000     0.707420000000    -0.552409   
O82      O      0.477830000000     0.262790000000     0.796440000000    -0.539749   
O83      O      0.478890000000     0.300840000000     0.745290000000    -0.548709   
O84      O      0.478400000000     0.211770000000     0.758510000000    -0.547463   
O85      O      0.030760000000     0.211210000000     0.751540000000    -0.554429   
O86      O      0.030970000000     0.301160000000     0.754140000000    -0.549548   
O87      O      0.030030000000     0.254620000000     0.797660000000    -0.559696   
O88      O      0.031640000000     0.257860000000     0.708120000000    -0.54001    
O89      O      0.248510000000     0.481090000000     0.702100000000    -0.552471   
O90      O      0.248530000000     0.474960000000     0.791610000000    -0.554811   
O91      O      0.203720000000     0.476790000000     0.746170000000    -0.553407   
O92      O      0.293720000000     0.479640000000     0.747810000000    -0.549391   
O93      O      0.291860000000     0.032390000000     0.751070000000    -0.53193    
O94      O      0.202370000000     0.029590000000     0.750360000000    -0.539545   
O95      O      0.245670000000     0.027680000000     0.795580000000    -0.540613   
O96      O      0.248490000000     0.033980000000     0.705500000000    -0.532224   
O97      O      0.225390000000     0.495950000000     0.956190000000    -0.543128   
O98      O      0.229990000000     0.993970000000     0.546000000000    -0.542931   
O99      O      0.224240000000     0.039910000000     0.002480000000    -0.545708   
O100     O      0.231220000000     0.450150000000     0.501340000000    -0.533078   
O101     O      0.283970000000     0.454340000000     0.001030000000    -0.546299   
O102     O      0.276330000000     0.043920000000     0.494380000000    -0.553188   
O103     O      0.281980000000     0.503080000000     0.543100000000    -0.543563   
O104     O      0.278190000000     0.995620000000     0.953360000000    -0.539357   
O105     O      0.508960000000     0.225260000000     0.547250000000    -0.556121   
O106     O      0.002100000000     0.229320000000     0.957880000000    -0.546924   
O107     O      0.050210000000     0.227420000000     0.498090000000    -0.551324   
O108     O      0.460540000000     0.227300000000     0.007020000000    -0.54691    
O109     O      0.460770000000     0.280320000000     0.507940000000    -0.547563   
O110     O      0.050160000000     0.280270000000     0.001520000000    -0.560775   
O111     O      0.501480000000     0.282280000000     0.960160000000    -0.548361   
O112     O      0.009680000000     0.278190000000     0.549480000000    -0.555547   
O113     O      0.252100000000     0.202160000000     0.531070000000    -0.551568   
O114     O      0.255950000000     0.292120000000     0.529980000000    -0.545328   
O115     O      0.209770000000     0.249670000000     0.529460000000    -0.542722   
O116     O      0.299620000000     0.244630000000     0.531410000000    -0.547464   
O117     O      0.300620000000     0.248970000000     0.978720000000    -0.552221   
O118     O      0.211010000000     0.243700000000     0.976890000000    -0.546442   
O119     O      0.254300000000     0.291360000000     0.977120000000    -0.544464   
O120     O      0.258760000000     0.201370000000     0.978630000000    -0.550057   
O121     O      0.419840000000     0.267570000000     0.942670000000    -0.0946304  
O122     O      0.397120000000     0.312680000000     0.949590000000    -0.105615   
O123     O      0.172360000000     0.315970000000     0.006840000000    -0.113749   
O124     O      0.150390000000     0.315940000000     0.552780000000    -0.105831   
O125     O      0.204190000000     0.411210000000     0.545880000000    -0.0961404  
O126     O      0.232610000000     0.395740000000     0.585090000000    -0.114654   
O127     O      0.235100000000     0.079120000000     0.564770000000    -0.109906   
O128     O      0.190380000000     0.103040000000     0.560400000000    -0.112125   
O129     O      0.251320000000     0.431980000000     0.918310000000    -0.112381   
O130     O      0.300290000000     0.945980000000     0.923070000000    -0.104877   
O131     O      0.313480000000     0.029170000000     0.665960000000    -0.102626   
O132     O      0.304220000000     0.072860000000     0.641460000000    -0.0976887  
O133     O      0.446310000000     0.238450000000     0.876630000000    -0.0896663  
O134     O      0.425530000000     0.284180000000     0.868340000000    -0.0953821  
O135     O      0.064380000000     0.294520000000     0.666100000000    -0.0989181  
O136     O      0.536540000000     0.333400000000     0.648750000000    -0.11037    
O137     O      0.160650000000     0.064920000000     0.784020000000    -0.10315    
O138     O      0.145620000000     0.540810000000     0.826180000000    -0.118951   
O139     O      0.338340000000     0.077550000000     0.750730000000    -0.0924572  
O140     O      0.354890000000     0.077850000000     0.702620000000    -0.0932922  
O141     O      0.469340000000     0.416670000000     0.685770000000    -0.0966071  
O142     O      0.426290000000     0.398940000000     0.706180000000    -0.111596   
O143     O      0.466880000000     0.094920000000     0.816230000000    -0.0990954  
O144     O      0.424420000000     0.112370000000     0.794390000000    -0.106614   
O145     O      0.001210000000     0.551440000000     0.225940000000    -0.551222   
O146     O      0.492750000000     0.961840000000     0.225270000000    -0.531994   
O147     O      0.452420000000     0.511170000000     0.227800000000    -0.545753   
O148     O      0.041710000000     0.002560000000     0.223390000000    -0.549684   
O149     O      0.043950000000     0.510090000000     0.275650000000    -0.54983    
O150     O      0.454600000000     0.001730000000     0.279810000000    -0.546129   
O151     O      0.003340000000     0.961080000000     0.277000000000    -0.551121   
O152     O      0.495100000000     0.550680000000     0.278430000000    -0.533882   
O153     O      0.479370000000     0.750030000000     0.207420000000    -0.55241    
O154     O      0.477830000000     0.762790000000     0.296440000000    -0.539751   
O155     O      0.478890000000     0.800840000000     0.245290000000    -0.548708   
O156     O      0.478400000000     0.711770000000     0.258510000000    -0.547467   
O157     O      0.030760000000     0.711210000000     0.251540000000    -0.554425   
O158     O      0.030970000000     0.801160000000     0.254140000000    -0.549539   
O159     O      0.030030000000     0.754620000000     0.297660000000    -0.559701   
O160     O      0.031640000000     0.757860000000     0.208120000000    -0.539994   
O161     O      0.248510000000     0.981090000000     0.202100000000    -0.551559   
O162     O      0.248530000000     0.974960000000     0.291610000000    -0.553762   
O163     O      0.203720000000     0.976790000000     0.246170000000    -0.552515   
O164     O      0.293720000000     0.979640000000     0.247810000000    -0.548468   
O165     O      0.291860000000     0.532390000000     0.251070000000    -0.532317   
O166     O      0.202370000000     0.529590000000     0.250350000000    -0.539964   
O167     O      0.245670000000     0.527680000000     0.295580000000    -0.541179   
O168     O      0.248490000000     0.533980000000     0.205500000000    -0.532571   
O169     O      0.225390000000     0.995950000000     0.456190000000    -0.545898   
O170     O      0.229990000000     0.493970000000     0.046010000000    -0.54168    
O171     O      0.224240000000     0.539910000000     0.502480000000    -0.542571   
O172     O      0.231220000000     0.950150000000     0.001340000000    -0.533183   
O173     O      0.283970000000     0.954340000000     0.501030000000    -0.542874   
O174     O      0.276330000000     0.543920000000     0.994380000000    -0.55415    
O175     O      0.281980000000     0.003080000000     0.043100000000    -0.548569   
O176     O      0.278190000000     0.495620000000     0.453360000000    -0.538016   
O177     O      0.508960000000     0.725260000000     0.047250000000    -0.555299   
O178     O      0.002100000000     0.729320000000     0.457880000000    -0.549805   
O179     O      0.050210000000     0.727420000000     0.998090000000    -0.548909   
O180     O      0.460540000000     0.727300000000     0.507010000000    -0.547223   
O181     O      0.460770000000     0.780320000000     0.007940000000    -0.548071   
O182     O      0.050160000000     0.780270000000     0.501520000000    -0.557971   
O183     O      0.501480000000     0.782280000000     0.460160000000    -0.550843   
O184     O      0.009680000000     0.778190000000     0.049480000000    -0.555089   
O185     O      0.252100000000     0.702150000000     0.031070000000    -0.550278   
O186     O      0.255950000000     0.792120000000     0.029980000000    -0.544113   
O187     O      0.209770000000     0.749670000000     0.029460000000    -0.541506   
O188     O      0.299620000000     0.744620000000     0.031410000000    -0.546274   
O189     O      0.300620000000     0.748970000000     0.478720000000    -0.555026   
O190     O      0.211010000000     0.743700000000     0.476890000000    -0.549312   
O191     O      0.254300000000     0.791360000000     0.477120000000    -0.547337   
O192     O      0.258760000000     0.701370000000     0.478630000000    -0.55295    
O193     O      0.419840000000     0.767570000000     0.442660000000    -0.0951285  
O194     O      0.397120000000     0.812680000000     0.449590000000    -0.106275   
O195     O      0.172360000000     0.815970000000     0.506840000000    -0.112576   
O196     O      0.150390000000     0.815940000000     0.052780000000    -0.105999   
O197     O      0.204190000000     0.911210000000     0.045880000000    -0.0963316  
O198     O      0.232610000000     0.895740000000     0.085090000000    -0.114657   
O199     O      0.235100000000     0.579120000000     0.064770000000    -0.110211   
O200     O      0.190380000000     0.603040000000     0.060410000000    -0.112255   
O201     O      0.251320000000     0.931980000000     0.418310000000    -0.112931   
O202     O      0.300290000000     0.445980000000     0.423070000000    -0.105482   
O203     O      0.313480000000     0.529170000000     0.165960000000    -0.10255    
O204     O      0.304220000000     0.572860000000     0.141460000000    -0.0978237  
O205     O      0.446310000000     0.738440000000     0.376630000000    -0.0898379  
O206     O      0.425530000000     0.784180000000     0.368340000000    -0.0954505  
O207     O      0.064380000000     0.794520000000     0.166100000000    -0.098926   
O208     O      0.536540000000     0.833400000000     0.148750000000    -0.110407   
O209     O      0.160650000000     0.564920000000     0.284020000000    -0.103207   
O210     O      0.145620000000     0.040810000000     0.326180000000    -0.119395   
O211     O      0.338340000000     0.577550000000     0.250730000000    -0.0924521  
O212     O      0.354890000000     0.577850000000     0.202620000000    -0.0933244  
O213     O      0.469340000000     0.916670000000     0.185770000000    -0.0965221  
O214     O      0.426290000000     0.898940000000     0.206180000000    -0.111531   
O215     O      0.466880000000     0.594920000000     0.316230000000    -0.0992453  
O216     O      0.424420000000     0.612370000000     0.294390000000    -0.106667   
O217     O      0.001210000000     0.551440000000     0.725940000000    -0.551109   
O218     O      0.492750000000     0.961840000000     0.725270000000    -0.531921   
O219     O      0.452420000000     0.511170000000     0.727800000000    -0.545558   
O220     O      0.041710000000     0.002560000000     0.723390000000    -0.54959    
O221     O      0.043950000000     0.510090000000     0.775650000000    -0.549726   
O222     O      0.454600000000     0.001730000000     0.779810000000    -0.546138   
O223     O      0.003340000000     0.961080000000     0.777000000000    -0.55099    
O224     O      0.495100000000     0.550680000000     0.778430000000    -0.5338     
O225     O      0.479370000000     0.750030000000     0.707420000000    -0.552407   
O226     O      0.477830000000     0.762790000000     0.796440000000    -0.539744   
O227     O      0.478890000000     0.800840000000     0.745290000000    -0.548704   
O228     O      0.478400000000     0.711770000000     0.758510000000    -0.547462   
O229     O      0.030760000000     0.711210000000     0.751540000000    -0.554424   
O230     O      0.030970000000     0.801160000000     0.754140000000    -0.549536   
O231     O      0.030030000000     0.754620000000     0.797660000000    -0.559686   
O232     O      0.031640000000     0.757860000000     0.708120000000    -0.540003   
O233     O      0.248510000000     0.981090000000     0.702100000000    -0.55156    
O234     O      0.248530000000     0.974960000000     0.791610000000    -0.55374    
O235     O      0.203720000000     0.976790000000     0.746170000000    -0.5525     
O236     O      0.293720000000     0.979640000000     0.747810000000    -0.548461   
O237     O      0.291860000000     0.532390000000     0.751070000000    -0.532311   
O238     O      0.202370000000     0.529590000000     0.750360000000    -0.539949   
O239     O      0.245670000000     0.527680000000     0.795580000000    -0.54115    
O240     O      0.248490000000     0.533980000000     0.705500000000    -0.532589   
O241     O      0.225390000000     0.995950000000     0.956190000000    -0.542966   
O242     O      0.229990000000     0.493970000000     0.546000000000    -0.542707   
O243     O      0.224240000000     0.539910000000     0.002480000000    -0.544903   
O244     O      0.231220000000     0.950150000000     0.501340000000    -0.533308   
O245     O      0.283970000000     0.954340000000     0.001030000000    -0.546768   
O246     O      0.276330000000     0.543920000000     0.494380000000    -0.552385   
O247     O      0.281980000000     0.003080000000     0.543100000000    -0.54532    
O248     O      0.278190000000     0.495620000000     0.953360000000    -0.539202   
O249     O      0.508960000000     0.725260000000     0.547250000000    -0.556113   
O250     O      0.002100000000     0.729320000000     0.957880000000    -0.546912   
O251     O      0.050210000000     0.727420000000     0.498090000000    -0.551312   
O252     O      0.460540000000     0.727300000000     0.007020000000    -0.546898   
O253     O      0.460770000000     0.780320000000     0.507940000000    -0.547546   
O254     O      0.050160000000     0.780270000000     0.001520000000    -0.560759   
O255     O      0.501480000000     0.782280000000     0.960160000000    -0.548342   
O256     O      0.009680000000     0.778190000000     0.549480000000    -0.555535   
O257     O      0.252100000000     0.702150000000     0.531070000000    -0.551422   
O258     O      0.255950000000     0.792120000000     0.529980000000    -0.545281   
O259     O      0.209770000000     0.749670000000     0.529460000000    -0.542679   
O260     O      0.299620000000     0.744620000000     0.531410000000    -0.547395   
O261     O      0.300620000000     0.748970000000     0.978720000000    -0.552215   
O262     O      0.211010000000     0.743700000000     0.976890000000    -0.546444   
O263     O      0.254300000000     0.791360000000     0.977120000000    -0.544466   
O264     O      0.258760000000     0.701370000000     0.978630000000    -0.550082   
O265     O      0.419840000000     0.767570000000     0.942670000000    -0.0946228  
O266     O      0.397120000000     0.812680000000     0.949590000000    -0.105562   
O267     O      0.172360000000     0.815970000000     0.006840000000    -0.113724   
O268     O      0.150390000000     0.815940000000     0.552780000000    -0.105795   
O269     O      0.204190000000     0.911210000000     0.545880000000    -0.0960517  
O270     O      0.232610000000     0.895740000000     0.585090000000    -0.114605   
O271     O      0.235100000000     0.579120000000     0.564770000000    -0.109772   
O272     O      0.190380000000     0.603040000000     0.560400000000    -0.112045   
O273     O      0.251320000000     0.931980000000     0.918310000000    -0.112349   
O274     O      0.300290000000     0.445980000000     0.923070000000    -0.104993   
O275     O      0.313480000000     0.529170000000     0.665960000000    -0.102479   
O276     O      0.304220000000     0.572860000000     0.641460000000    -0.0976574  
O277     O      0.446310000000     0.738440000000     0.876630000000    -0.0896599  
O278     O      0.425530000000     0.784180000000     0.868340000000    -0.0953595  
O279     O      0.064380000000     0.794520000000     0.666100000000    -0.0989049  
O280     O      0.536540000000     0.833400000000     0.648750000000    -0.110302   
O281     O      0.160650000000     0.564920000000     0.784020000000    -0.103158   
O282     O      0.145620000000     0.040810000000     0.826180000000    -0.11916    
O283     O      0.338340000000     0.577550000000     0.750730000000    -0.0924308  
O284     O      0.354890000000     0.577850000000     0.702620000000    -0.0932675  
O285     O      0.469340000000     0.916670000000     0.685770000000    -0.0963931  
O286     O      0.426290000000     0.898940000000     0.706180000000    -0.111464   
O287     O      0.466880000000     0.594920000000     0.816230000000    -0.0990304  
O288     O      0.424420000000     0.612370000000     0.794390000000    -0.106582   
O289     O      0.501210000000     0.051440000000     0.225940000000    -0.553943   
O290     O      0.992750000000     0.461840000000     0.225270000000    -0.532048   
O291     O      0.952420000000     0.011170000000     0.227800000000    -0.545366   
O292     O      0.541710000000     0.502560000000     0.223390000000    -0.550983   
O293     O      0.543950000000     0.010090000000     0.275650000000    -0.551328   
O294     O      0.954600000000     0.501730000000     0.279810000000    -0.545562   
O295     O      0.503340000000     0.461080000000     0.277000000000    -0.554792   
O296     O      0.995100000000     0.050680000000     0.278430000000    -0.532946   
O297     O      0.979370000000     0.250030000000     0.207420000000    -0.553818   
O298     O      0.977830000000     0.262790000000     0.296440000000    -0.541176   
O299     O      0.978900000000     0.300840000000     0.245290000000    -0.55033    
O300     O      0.978400000000     0.211770000000     0.258510000000    -0.548814   
O301     O      0.530750000000     0.211210000000     0.251540000000    -0.554044   
O302     O      0.530970000000     0.301160000000     0.254140000000    -0.548883   
O303     O      0.530030000000     0.254620000000     0.297660000000    -0.559116   
O304     O      0.531640000000     0.257860000000     0.208120000000    -0.539358   
O305     O      0.748510000000     0.481090000000     0.202100000000    -0.552471   
O306     O      0.748530000000     0.474960000000     0.291610000000    -0.554833   
O307     O      0.703720000000     0.476790000000     0.246170000000    -0.553425   
O308     O      0.793720000000     0.479640000000     0.247810000000    -0.549398   
O309     O      0.791860000000     0.032390000000     0.251070000000    -0.531931   
O310     O      0.702370000000     0.029590000000     0.250350000000    -0.539559   
O311     O      0.745670000000     0.027680000000     0.295580000000    -0.540637   
O312     O      0.748490000000     0.033980000000     0.205500000000    -0.532203   
O313     O      0.725400000000     0.495950000000     0.456190000000    -0.546307   
O314     O      0.729990000000     0.993970000000     0.046010000000    -0.541941   
O315     O      0.724240000000     0.039910000000     0.502480000000    -0.543437   
O316     O      0.731220000000     0.450150000000     0.001340000000    -0.532979   
O317     O      0.783970000000     0.454340000000     0.501030000000    -0.542431   
O318     O      0.776330000000     0.043920000000     0.994380000000    -0.554979   
O319     O      0.781980000000     0.503080000000     0.043100000000    -0.546836   
O320     O      0.778190000000     0.995620000000     0.453360000000    -0.538269   
O321     O      0.008960000000     0.225260000000     0.047250000000    -0.555152   
O322     O      0.502100000000     0.229320000000     0.457880000000    -0.550016   
O323     O      0.550210000000     0.227420000000     0.998090000000    -0.548628   
O324     O      0.960540000000     0.227300000000     0.507010000000    -0.54854    
O325     O      0.960780000000     0.280320000000     0.007940000000    -0.549555   
O326     O      0.550160000000     0.280270000000     0.501520000000    -0.557604   
O327     O      0.001480000000     0.282280000000     0.460160000000    -0.550652   
O328     O      0.509680000000     0.278190000000     0.049480000000    -0.555124   
O329     O      0.752100000000     0.202160000000     0.031070000000    -0.550439   
O330     O      0.755950000000     0.292120000000     0.029980000000    -0.544173   
O331     O      0.709770000000     0.249670000000     0.029460000000    -0.541552   
O332     O      0.799620000000     0.244630000000     0.031410000000    -0.546281   
O333     O      0.800620000000     0.248970000000     0.478720000000    -0.554954   
O334     O      0.711010000000     0.243700000000     0.476890000000    -0.549306   
O335     O      0.754300000000     0.291360000000     0.477120000000    -0.547328   
O336     O      0.758760000000     0.201370000000     0.478630000000    -0.552926   
O337     O      0.919840000000     0.267570000000     0.442660000000    -0.0953737  
O338     O      0.897120000000     0.312680000000     0.449590000000    -0.10648    
O339     O      0.672360000000     0.315970000000     0.506840000000    -0.112619   
O340     O      0.650390000000     0.315940000000     0.052780000000    -0.106083   
O341     O      0.704190000000     0.411210000000     0.045880000000    -0.0964765  
O342     O      0.732610000000     0.395740000000     0.085090000000    -0.114726   
O343     O      0.735100000000     0.079120000000     0.064770000000    -0.110357   
O344     O      0.690380000000     0.103040000000     0.060410000000    -0.112411   
O345     O      0.751320000000     0.431980000000     0.418310000000    -0.112976   
O346     O      0.800290000000     0.945980000000     0.423070000000    -0.105422   
O347     O      0.813470000000     0.029170000000     0.165960000000    -0.102729   
O348     O      0.804220000000     0.072860000000     0.141460000000    -0.0978975  
O349     O      0.946310000000     0.238450000000     0.376630000000    -0.0901371  
O350     O      0.925530000000     0.284180000000     0.368340000000    -0.0955437  
O351     O      0.564380000000     0.294520000000     0.166100000000    -0.0989354  
O352     O      0.036530000000     0.333400000000     0.148750000000    -0.109903   
O353     O      0.660650000000     0.064920000000     0.284020000000    -0.10324    
O354     O      0.645610000000     0.540810000000     0.326180000000    -0.119316   
O355     O      0.838340000000     0.077550000000     0.250730000000    -0.092497   
O356     O      0.854890000000     0.077850000000     0.202620000000    -0.0934168  
O357     O      0.969340000000     0.416670000000     0.185770000000    -0.0970454  
O358     O      0.926290000000     0.398940000000     0.206180000000    -0.111742   
O359     O      0.966880000000     0.094920000000     0.316230000000    -0.0995755  
O360     O      0.924420000000     0.112370000000     0.294390000000    -0.106758   
O361     O      0.501210000000     0.051440000000     0.725940000000    -0.553862   
O362     O      0.992750000000     0.461840000000     0.725270000000    -0.531969   
O363     O      0.952420000000     0.011170000000     0.727800000000    -0.545165   
O364     O      0.541710000000     0.502560000000     0.723390000000    -0.550907   
O365     O      0.543950000000     0.010090000000     0.775650000000    -0.551242   
O366     O      0.954600000000     0.501730000000     0.779810000000    -0.545565   
O367     O      0.503340000000     0.461080000000     0.777000000000    -0.554697   
O368     O      0.995100000000     0.050680000000     0.778430000000    -0.532854   
O369     O      0.979370000000     0.250030000000     0.707420000000    -0.553832   
O370     O      0.977830000000     0.262790000000     0.796440000000    -0.541186   
O371     O      0.978900000000     0.300840000000     0.745290000000    -0.550343   
O372     O      0.978400000000     0.211770000000     0.758510000000    -0.548826   
O373     O      0.530750000000     0.211210000000     0.751540000000    -0.554037   
O374     O      0.530970000000     0.301160000000     0.754140000000    -0.548874   
O375     O      0.530030000000     0.254620000000     0.797660000000    -0.559094   
O376     O      0.531640000000     0.257860000000     0.708120000000    -0.53936    
O377     O      0.748510000000     0.481090000000     0.702100000000    -0.552473   
O378     O      0.748530000000     0.474960000000     0.791610000000    -0.554814   
O379     O      0.703720000000     0.476790000000     0.746170000000    -0.553413   
O380     O      0.793720000000     0.479640000000     0.747810000000    -0.549393   
O381     O      0.791860000000     0.032390000000     0.751070000000    -0.531924   
O382     O      0.702370000000     0.029590000000     0.750360000000    -0.539542   
O383     O      0.745670000000     0.027680000000     0.795580000000    -0.540607   
O384     O      0.748490000000     0.033980000000     0.705500000000    -0.532221   
O385     O      0.725400000000     0.495950000000     0.956190000000    -0.543388   
O386     O      0.729990000000     0.993970000000     0.546000000000    -0.542962   
O387     O      0.724240000000     0.039910000000     0.002480000000    -0.545746   
O388     O      0.731220000000     0.450150000000     0.501340000000    -0.533103   
O389     O      0.783970000000     0.454340000000     0.001030000000    -0.546302   
O390     O      0.776330000000     0.043920000000     0.494380000000    -0.553225   
O391     O      0.781980000000     0.503080000000     0.543100000000    -0.543599   
O392     O      0.778190000000     0.995620000000     0.953360000000    -0.539447   
O393     O      0.008960000000     0.225260000000     0.547250000000    -0.555967   
O394     O      0.502100000000     0.229320000000     0.957880000000    -0.547141   
O395     O      0.550210000000     0.227420000000     0.498090000000    -0.551013   
O396     O      0.960540000000     0.227300000000     0.007020000000    -0.548187   
O397     O      0.960780000000     0.280320000000     0.507940000000    -0.549059   
O398     O      0.550160000000     0.280270000000     0.001520000000    -0.560384   
O399     O      0.001480000000     0.282280000000     0.960160000000    -0.548139   
O400     O      0.509680000000     0.278190000000     0.549480000000    -0.555569   
O401     O      0.752100000000     0.202160000000     0.531070000000    -0.551574   
O402     O      0.755950000000     0.292120000000     0.529980000000    -0.545333   
O403     O      0.709770000000     0.249670000000     0.529460000000    -0.542717   
O404     O      0.799620000000     0.244630000000     0.531410000000    -0.547392   
O405     O      0.800620000000     0.248970000000     0.978720000000    -0.552166   
O406     O      0.711010000000     0.243700000000     0.976890000000    -0.546455   
O407     O      0.754300000000     0.291360000000     0.977120000000    -0.544476   
O408     O      0.758760000000     0.201370000000     0.978630000000    -0.55008    
O409     O      0.919840000000     0.267570000000     0.942670000000    -0.0948758  
O410     O      0.897120000000     0.312680000000     0.949590000000    -0.105773   
O411     O      0.672360000000     0.315970000000     0.006840000000    -0.11376    
O412     O      0.650390000000     0.315940000000     0.552780000000    -0.10588    
O413     O      0.704190000000     0.411210000000     0.545880000000    -0.096198   
O414     O      0.732610000000     0.395740000000     0.585090000000    -0.114674   
O415     O      0.735100000000     0.079120000000     0.564770000000    -0.109921   
O416     O      0.690380000000     0.103040000000     0.560400000000    -0.112202   
O417     O      0.751320000000     0.431980000000     0.918310000000    -0.112396   
O418     O      0.800290000000     0.945980000000     0.923070000000    -0.104937   
O419     O      0.813470000000     0.029170000000     0.665960000000    -0.102659   
O420     O      0.804220000000     0.072860000000     0.641460000000    -0.0977333  
O421     O      0.946310000000     0.238450000000     0.876630000000    -0.0899645  
O422     O      0.925530000000     0.284180000000     0.868340000000    -0.0954542  
O423     O      0.564380000000     0.294520000000     0.666100000000    -0.0989142  
O424     O      0.036530000000     0.333400000000     0.648750000000    -0.109791   
O425     O      0.660650000000     0.064920000000     0.784020000000    -0.103191   
O426     O      0.645610000000     0.540810000000     0.826180000000    -0.119081   
O427     O      0.838340000000     0.077550000000     0.750730000000    -0.0924761  
O428     O      0.854890000000     0.077850000000     0.702620000000    -0.0933615  
O429     O      0.969340000000     0.416670000000     0.685770000000    -0.0969224  
O430     O      0.926290000000     0.398940000000     0.706180000000    -0.111677   
O431     O      0.966880000000     0.094920000000     0.816230000000    -0.0993666  
O432     O      0.924420000000     0.112370000000     0.794390000000    -0.106676   
O433     O      0.501210000000     0.551440000000     0.225940000000    -0.554112   
O434     O      0.992750000000     0.961840000000     0.225270000000    -0.531189   
O435     O      0.952420000000     0.511170000000     0.227800000000    -0.545314   
O436     O      0.541710000000     0.002560000000     0.223390000000    -0.551168   
O437     O      0.543950000000     0.510090000000     0.275650000000    -0.551289   
O438     O      0.954600000000     0.001730000000     0.279810000000    -0.545704   
O439     O      0.503340000000     0.961080000000     0.277000000000    -0.553925   
O440     O      0.995100000000     0.550680000000     0.278430000000    -0.53312    
O441     O      0.979370000000     0.750030000000     0.207420000000    -0.553802   
O442     O      0.977830000000     0.762790000000     0.296440000000    -0.541157   
O443     O      0.978900000000     0.800840000000     0.245290000000    -0.550308   
O444     O      0.978400000000     0.711770000000     0.258510000000    -0.548801   
O445     O      0.530750000000     0.711210000000     0.251540000000    -0.554044   
O446     O      0.530970000000     0.801160000000     0.254140000000    -0.548878   
O447     O      0.530030000000     0.754620000000     0.297660000000    -0.559113   
O448     O      0.531640000000     0.757860000000     0.208120000000    -0.539358   
O449     O      0.748510000000     0.981090000000     0.202100000000    -0.551548   
O450     O      0.748530000000     0.974960000000     0.291610000000    -0.553748   
O451     O      0.703720000000     0.976790000000     0.246170000000    -0.552505   
O452     O      0.793720000000     0.979640000000     0.247810000000    -0.548457   
O453     O      0.791860000000     0.532390000000     0.251070000000    -0.532316   
O454     O      0.702370000000     0.529590000000     0.250350000000    -0.539968   
O455     O      0.745670000000     0.527680000000     0.295580000000    -0.541181   
O456     O      0.748490000000     0.533980000000     0.205500000000    -0.532573   
O457     O      0.725400000000     0.995950000000     0.456190000000    -0.54614    
O458     O      0.729990000000     0.493970000000     0.046010000000    -0.541714   
O459     O      0.724240000000     0.539910000000     0.502480000000    -0.542608   
O460     O      0.731220000000     0.950150000000     0.001340000000    -0.533212   
O461     O      0.783970000000     0.954340000000     0.501030000000    -0.542907   
O462     O      0.776330000000     0.543920000000     0.994380000000    -0.554162   
O463     O      0.781980000000     0.003080000000     0.043100000000    -0.548612   
O464     O      0.778190000000     0.495620000000     0.453360000000    -0.53811    
O465     O      0.008960000000     0.725260000000     0.047250000000    -0.555145   
O466     O      0.502100000000     0.729320000000     0.457880000000    -0.550006   
O467     O      0.550210000000     0.727420000000     0.998090000000    -0.548615   
O468     O      0.960540000000     0.727300000000     0.507010000000    -0.548516   
O469     O      0.960780000000     0.780320000000     0.007940000000    -0.549523   
O470     O      0.550160000000     0.780270000000     0.501520000000    -0.557589   
O471     O      0.001480000000     0.782280000000     0.460160000000    -0.550638   
O472     O      0.509680000000     0.778190000000     0.049480000000    -0.555111   
O473     O      0.752100000000     0.702150000000     0.031070000000    -0.550291   
O474     O      0.755950000000     0.792120000000     0.029980000000    -0.544125   
O475     O      0.709770000000     0.749670000000     0.029460000000    -0.541508   
O476     O      0.799620000000     0.744620000000     0.031410000000    -0.546211   
O477     O      0.800620000000     0.748970000000     0.478720000000    -0.55495    
O478     O      0.711010000000     0.743700000000     0.476890000000    -0.54931    
O479     O      0.754300000000     0.791360000000     0.477120000000    -0.547332   
O480     O      0.758760000000     0.701370000000     0.478630000000    -0.552955   
O481     O      0.919840000000     0.767570000000     0.442660000000    -0.0953643  
O482     O      0.897120000000     0.812680000000     0.449590000000    -0.106425   
O483     O      0.672360000000     0.815970000000     0.506840000000    -0.112593   
O484     O      0.650390000000     0.815940000000     0.052780000000    -0.106045   
O485     O      0.704190000000     0.911210000000     0.045880000000    -0.0963857  
O486     O      0.732610000000     0.895740000000     0.085090000000    -0.114676   
O487     O      0.735100000000     0.579120000000     0.064770000000    -0.110222   
O488     O      0.690380000000     0.603040000000     0.060410000000    -0.11233    
O489     O      0.751320000000     0.931980000000     0.418310000000    -0.112943   
O490     O      0.800290000000     0.445980000000     0.423070000000    -0.105541   
O491     O      0.813470000000     0.529170000000     0.165960000000    -0.10258    
O492     O      0.804220000000     0.572860000000     0.141460000000    -0.0978661  
O493     O      0.946310000000     0.738440000000     0.376630000000    -0.0901283  
O494     O      0.925530000000     0.784180000000     0.368340000000    -0.0955201  
O495     O      0.564380000000     0.794520000000     0.166100000000    -0.0989219  
O496     O      0.036530000000     0.833400000000     0.148750000000    -0.109843   
O497     O      0.660650000000     0.564920000000     0.284020000000    -0.103248   
O498     O      0.645610000000     0.040810000000     0.326180000000    -0.119528   
O499     O      0.838340000000     0.577550000000     0.250730000000    -0.0924703  
O500     O      0.854890000000     0.577850000000     0.202620000000    -0.0933918  
O501     O      0.969340000000     0.916670000000     0.185770000000    -0.0968256  
O502     O      0.926290000000     0.898940000000     0.206180000000    -0.111607   
O503     O      0.966880000000     0.594920000000     0.316230000000    -0.0995093  
O504     O      0.924420000000     0.612370000000     0.294390000000    -0.106726   
O505     O      0.501210000000     0.551440000000     0.725940000000    -0.554032   
O506     O      0.992750000000     0.961840000000     0.725270000000    -0.531108   
O507     O      0.952420000000     0.511170000000     0.727800000000    -0.545113   
O508     O      0.541710000000     0.002560000000     0.723390000000    -0.551092   
O509     O      0.543950000000     0.510090000000     0.775650000000    -0.551203   
O510     O      0.954600000000     0.001730000000     0.779810000000    -0.545708   
O511     O      0.503340000000     0.961080000000     0.777000000000    -0.553827   
O512     O      0.995100000000     0.550680000000     0.778430000000    -0.533029   
O513     O      0.979370000000     0.750030000000     0.707420000000    -0.553816   
O514     O      0.977830000000     0.762790000000     0.796440000000    -0.541167   
O515     O      0.978900000000     0.800840000000     0.745290000000    -0.550321   
O516     O      0.978400000000     0.711770000000     0.758510000000    -0.548813   
O517     O      0.530750000000     0.711210000000     0.751540000000    -0.554037   
O518     O      0.530970000000     0.801160000000     0.754140000000    -0.548869   
O519     O      0.530030000000     0.754620000000     0.797660000000    -0.559091   
O520     O      0.531640000000     0.757860000000     0.708120000000    -0.53936    
O521     O      0.748510000000     0.981090000000     0.702100000000    -0.551548   
O522     O      0.748530000000     0.974960000000     0.791610000000    -0.553726   
O523     O      0.703720000000     0.976790000000     0.746170000000    -0.552489   
O524     O      0.793720000000     0.979640000000     0.747810000000    -0.54845    
O525     O      0.791860000000     0.532390000000     0.751070000000    -0.53231    
O526     O      0.702370000000     0.529590000000     0.750360000000    -0.539953   
O527     O      0.745670000000     0.527680000000     0.795580000000    -0.541152   
O528     O      0.748490000000     0.533980000000     0.705500000000    -0.532591   
O529     O      0.725400000000     0.995950000000     0.956190000000    -0.543223   
O530     O      0.729990000000     0.493970000000     0.546000000000    -0.542736   
O531     O      0.724240000000     0.539910000000     0.002480000000    -0.544927   
O532     O      0.731220000000     0.950150000000     0.501340000000    -0.533336   
O533     O      0.783970000000     0.954340000000     0.001030000000    -0.546776   
O534     O      0.776330000000     0.543920000000     0.494380000000    -0.552407   
O535     O      0.781980000000     0.003080000000     0.543100000000    -0.545383   
O536     O      0.778190000000     0.495620000000     0.953360000000    -0.539289   
O537     O      0.008960000000     0.725260000000     0.547250000000    -0.55596    
O538     O      0.502100000000     0.729320000000     0.957880000000    -0.547128   
O539     O      0.550210000000     0.727420000000     0.498090000000    -0.551004   
O540     O      0.960540000000     0.727300000000     0.007020000000    -0.548162   
O541     O      0.960780000000     0.780320000000     0.507940000000    -0.549027   
O542     O      0.550160000000     0.780270000000     0.001520000000    -0.560371   
O543     O      0.001480000000     0.782280000000     0.960160000000    -0.548123   
O544     O      0.509680000000     0.778190000000     0.549480000000    -0.555556   
O545     O      0.752100000000     0.702150000000     0.531070000000    -0.551428   
O546     O      0.755950000000     0.792120000000     0.529980000000    -0.545286   
O547     O      0.709770000000     0.749670000000     0.529460000000    -0.542674   
O548     O      0.799620000000     0.744620000000     0.531410000000    -0.547323   
O549     O      0.800620000000     0.748970000000     0.978720000000    -0.55216    
O550     O      0.711010000000     0.743700000000     0.976890000000    -0.546457   
O551     O      0.754300000000     0.791360000000     0.977120000000    -0.544478   
O552     O      0.758760000000     0.701370000000     0.978630000000    -0.550105   
O553     O      0.919840000000     0.767570000000     0.942670000000    -0.0948658  
O554     O      0.897120000000     0.812680000000     0.949590000000    -0.105718   
O555     O      0.672360000000     0.815970000000     0.006840000000    -0.113735   
O556     O      0.650390000000     0.815940000000     0.552780000000    -0.105843   
O557     O      0.704190000000     0.911210000000     0.545880000000    -0.0961072  
O558     O      0.732610000000     0.895740000000     0.585090000000    -0.114625   
O559     O      0.735100000000     0.579120000000     0.564770000000    -0.109785   
O560     O      0.690380000000     0.603040000000     0.560400000000    -0.11212    
O561     O      0.751320000000     0.931980000000     0.918310000000    -0.112364   
O562     O      0.800290000000     0.445980000000     0.923070000000    -0.105055   
O563     O      0.813470000000     0.529170000000     0.665960000000    -0.102509   
O564     O      0.804220000000     0.572860000000     0.641460000000    -0.0977016  
O565     O      0.946310000000     0.738440000000     0.876630000000    -0.0899553  
O566     O      0.925530000000     0.784180000000     0.868340000000    -0.0954305  
O567     O      0.564380000000     0.794520000000     0.666100000000    -0.0989007  
O568     O      0.036530000000     0.833400000000     0.648750000000    -0.109732   
O569     O      0.660650000000     0.564920000000     0.784020000000    -0.103199   
O570     O      0.645610000000     0.040810000000     0.826180000000    -0.119294   
O571     O      0.838340000000     0.577550000000     0.750730000000    -0.0924493  
O572     O      0.854890000000     0.577850000000     0.702620000000    -0.0933363  
O573     O      0.969340000000     0.916670000000     0.685770000000    -0.0967025  
O574     O      0.926290000000     0.898940000000     0.706180000000    -0.111541   
O575     O      0.966880000000     0.594920000000     0.816230000000    -0.0992995  
O576     O      0.924420000000     0.612370000000     0.794390000000    -0.106643   
V1       V      0.496930000000     0.006680000000     0.223300000000     1.40503    
V2       V      0.499390000000     0.505820000000     0.280020000000     1.40283    
V3       V      0.476330000000     0.256330000000     0.251890000000     1.40177    
V4       V      0.033100000000     0.256180000000     0.252920000000     1.41336    
V5       V      0.248750000000     0.476020000000     0.246730000000     1.40095    
V6       V      0.247060000000     0.033030000000     0.250720000000     1.41974    
V7       V      0.225550000000     0.994840000000     0.501430000000     1.41962    
V8       V      0.282290000000     0.999390000000     0.997930000000     1.41374    
V9       V      0.005380000000     0.225180000000     0.002490000000     1.39096    
V10      V      0.005480000000     0.282360000000     0.504920000000     1.42638    
V11      V      0.254430000000     0.247150000000     0.032660000000     1.39726    
V12      V      0.256090000000     0.246300000000     0.475680000000     1.4033     
V13      V      0.496930000000     0.006680000000     0.723300000000     1.4048     
V14      V      0.499390000000     0.505820000000     0.780010000000     1.40296    
V15      V      0.476330000000     0.256330000000     0.751890000000     1.40175    
V16      V      0.033100000000     0.256180000000     0.752920000000     1.41339    
V17      V      0.248750000000     0.476020000000     0.746730000000     1.40093    
V18      V      0.247060000000     0.033030000000     0.750720000000     1.41971    
V19      V      0.225550000000     0.994840000000     0.001430000000     1.41055    
V20      V      0.282290000000     0.999390000000     0.497930000000     1.40099    
V21      V      0.005380000000     0.225180000000     0.502490000000     1.39801    
V22      V      0.005480000000     0.282360000000     0.004920000000     1.4238     
V23      V      0.254430000000     0.247150000000     0.532660000000     1.40167    
V24      V      0.256090000000     0.246300000000     0.975680000000     1.40552    
V25      V      0.496930000000     0.506680000000     0.223300000000     1.40606    
V26      V      0.499390000000     0.005820000000     0.280020000000     1.40178    
V27      V      0.476330000000     0.756330000000     0.251890000000     1.40177    
V28      V      0.033100000000     0.756180000000     0.252920000000     1.41333    
V29      V      0.248750000000     0.976020000000     0.246730000000     1.40164    
V30      V      0.247060000000     0.533030000000     0.250720000000     1.42117    
V31      V      0.225550000000     0.494840000000     0.501430000000     1.41844    
V32      V      0.282290000000     0.499400000000     0.997930000000     1.41112    
V33      V      0.005380000000     0.725180000000     0.002490000000     1.39094    
V34      V      0.005480000000     0.782360000000     0.504920000000     1.42643    
V35      V      0.254430000000     0.747150000000     0.032660000000     1.39691    
V36      V      0.256090000000     0.746300000000     0.475680000000     1.40337    
V37      V      0.496930000000     0.506680000000     0.723300000000     1.40583    
V38      V      0.499390000000     0.005820000000     0.780010000000     1.4019     
V39      V      0.476330000000     0.756330000000     0.751890000000     1.40175    
V40      V      0.033100000000     0.756180000000     0.752920000000     1.41336    
V41      V      0.248750000000     0.976020000000     0.746730000000     1.40162    
V42      V      0.247060000000     0.533030000000     0.750720000000     1.42114    
V43      V      0.225550000000     0.494840000000     0.001430000000     1.40936    
V44      V      0.282290000000     0.499400000000     0.497930000000     1.39836    
V45      V      0.005380000000     0.725180000000     0.502490000000     1.39801    
V46      V      0.005480000000     0.782360000000     0.004920000000     1.42385    
V47      V      0.254430000000     0.747150000000     0.532660000000     1.40133    
V48      V      0.256090000000     0.746300000000     0.975680000000     1.40559    
V49      V      0.996930000000     0.006680000000     0.223300000000     1.40154    
V50      V      0.999390000000     0.505820000000     0.280020000000     1.39937    
V51      V      0.976330000000     0.256330000000     0.251890000000     1.40081    
V52      V      0.533100000000     0.256180000000     0.252920000000     1.41107    
V53      V      0.748750000000     0.476020000000     0.246730000000     1.40095    
V54      V      0.747060000000     0.033030000000     0.250720000000     1.41973    
V55      V      0.725550000000     0.994840000000     0.501430000000     1.41965    
V56      V      0.782290000000     0.999390000000     0.997930000000     1.41368    
V57      V      0.505380000000     0.225180000000     0.002490000000     1.38901    
V58      V      0.505480000000     0.282360000000     0.504920000000     1.42406    
V59      V      0.754430000000     0.247150000000     0.032660000000     1.39729    
V60      V      0.756090000000     0.246300000000     0.475680000000     1.4033     
V61      V      0.996930000000     0.006680000000     0.723300000000     1.40126    
V62      V      0.999390000000     0.505820000000     0.780010000000     1.39945    
V63      V      0.976330000000     0.256330000000     0.751890000000     1.40077    
V64      V      0.533100000000     0.256180000000     0.752920000000     1.41107    
V65      V      0.748750000000     0.476020000000     0.746730000000     1.40094    
V66      V      0.747060000000     0.033030000000     0.750720000000     1.41969    
V67      V      0.725550000000     0.994840000000     0.001430000000     1.41063    
V68      V      0.782290000000     0.999390000000     0.497930000000     1.40101    
V69      V      0.505380000000     0.225180000000     0.502490000000     1.39601    
V70      V      0.505480000000     0.282360000000     0.004920000000     1.42152    
V71      V      0.754430000000     0.247150000000     0.532660000000     1.40168    
V72      V      0.756090000000     0.246300000000     0.975680000000     1.40551    
V73      V      0.996930000000     0.506680000000     0.223300000000     1.4026     
V74      V      0.999390000000     0.005820000000     0.280020000000     1.39833    
V75      V      0.976330000000     0.756330000000     0.251890000000     1.40081    
V76      V      0.533100000000     0.756180000000     0.252920000000     1.41106    
V77      V      0.748750000000     0.976020000000     0.246730000000     1.40165    
V78      V      0.747060000000     0.533030000000     0.250720000000     1.42117    
V79      V      0.725550000000     0.494840000000     0.501430000000     1.41844    
V80      V      0.782290000000     0.499400000000     0.997930000000     1.41103    
V81      V      0.505380000000     0.725180000000     0.002490000000     1.38901    
V82      V      0.505480000000     0.782360000000     0.504920000000     1.42413    
V83      V      0.754430000000     0.747150000000     0.032660000000     1.39694    
V84      V      0.756090000000     0.746300000000     0.475680000000     1.40337    
V85      V      0.996930000000     0.506680000000     0.723300000000     1.40233    
V86      V      0.999390000000     0.005820000000     0.780010000000     1.39841    
V87      V      0.976330000000     0.756330000000     0.751890000000     1.40078    
V88      V      0.533100000000     0.756180000000     0.752920000000     1.41106    
V89      V      0.748750000000     0.976020000000     0.746730000000     1.40164    
V90      V      0.747060000000     0.533030000000     0.750720000000     1.42115    
V91      V      0.725550000000     0.494840000000     0.001430000000     1.40942    
V92      V      0.782290000000     0.499400000000     0.497930000000     1.39834    
V93      V      0.505380000000     0.725180000000     0.502490000000     1.39602    
V94      V      0.505480000000     0.782360000000     0.004920000000     1.42159    
V95      V      0.754430000000     0.747150000000     0.532660000000     1.40133    
V96      V      0.756090000000     0.746300000000     0.975680000000     1.40558    


