data_structure

_audit_creation_method RASPA-1.0
_audit_creation_date 2023-5-19
_audit_author_name 'Poobodin Mano'

_cell_length_a    42.2305
_cell_length_b    41.1037
_cell_length_c    41.9787
_cell_angle_alpha 90
_cell_angle_beta  90
_cell_angle_gamma 90
_cell_volume      72867.9

_symmetry_cell_setting          triclinic
_symmetry_space_group_name_Hall 'P 1'
_symmetry_space_group_name_H-M  'P 1'
_symmetry_Int_Tables_number     1

_symmetry_equiv_pos_as_xyz 'x,y,z'

loop_
_atom_site_label
_atom_site_type_symbol
_atom_site_fract_x
_atom_site_fract_y
_atom_site_fract_z
_atom_site_charge
C1       C      0.495430000000     0.081810000000     0.248080000000     0.481083   
C2       C      0.496920000000     0.459180000000     0.248860000000     0.478012   
C3       C      0.436530000000     0.521660000000     0.248040000000     0.47928    
C4       C      0.055660000000     0.519680000000     0.249120000000     0.485041   
C5       C      0.001240000000     0.266660000000     0.203820000000     0.475074   
C6       C      0.004840000000     0.270140000000     0.324140000000     0.478568   
C7       C      0.494970000000     0.328570000000     0.263320000000     0.485851   
C8       C      0.511300000000     0.207190000000     0.266260000000     0.476944   
C9       C      0.306750000000     0.017290000000     0.246020000000     0.481239   
C10      C      0.187500000000     0.016170000000     0.251060000000     0.479873   
C11      C      0.245330000000     0.513860000000     0.189070000000     0.476884   
C12      C      0.249070000000     0.519610000000     0.309210000000     0.479472   
C13      C      0.240050000000     0.005280000000     0.059060000000     0.4774     
C14      C      0.250340000000     0.023570000000     0.440100000000     0.479766   
C15      C      0.258740000000     0.073520000000     0.509270000000     0.476892   
C16      C      0.231510000000     0.455270000000     0.489490000000     0.479345   
C17      C      0.012930000000     0.254780000000     0.075820000000     0.477651   
C18      C      0.005870000000     0.262130000000     0.455620000000     0.472623   
C19      C      0.069380000000     0.256780000000     0.512750000000     0.468779   
C20      C      0.449300000000     0.260170000000     0.519060000000     0.471258   
C21      C      0.267470000000     0.206350000000     0.511830000000     0.47511    
C22      C      0.253040000000     0.328410000000     0.500300000000     0.471306   
C23      C      0.200380000000     0.261210000000     0.004830000000     0.468758   
C24      C      0.320060000000     0.273390000000     0.007660000000     0.463013   
C25      C      0.371770000000     0.261220000000     0.482720000000    -0.00691908 
C26      C      0.369070000000     0.294350000000     0.033050000000     0.0110622  
C27      C      0.398930000000     0.241150000000     0.496890000000    -0.00938814 
C28      C      0.398450000000     0.276160000000     0.045880000000    -0.0576769  
C29      C      0.417900000000     0.297730000000     0.067650000000     0.314616   
C30      C      0.119550000000     0.279710000000     0.032020000000    -0.00467003 
C31      C      0.119100000000     0.227300000000     0.000990000000    -0.000164943
C32      C      0.151010000000     0.288960000000     0.516480000000    -0.00993278 
C33      C      0.149950000000     0.237560000000     0.483860000000    -0.0570839  
C34      C      0.168760000000     0.207490000000     0.475110000000     0.311979   
C35      C      0.235110000000     0.380510000000     0.023690000000    -0.0157571  
C36      C      0.260100000000     0.378960000000     0.469030000000     0.0126406  
C37      C      0.210390000000     0.404910000000     0.011420000000    -0.00945174 
C38      C      0.235680000000     0.404170000000     0.457620000000    -0.053727   
C39      C      0.247960000000     0.424960000000     0.430520000000     0.308869   
C40      C      0.289290000000     0.155500000000     0.489190000000    -0.00419882 
C41      C      0.269460000000     0.156580000000     0.045190000000     0.0131796  
C42      C      0.272490000000     0.123240000000     0.483150000000    -0.0110595  
C43      C      0.252320000000     0.123860000000     0.039910000000    -0.0589689  
C44      C      0.253790000000     0.104370000000     0.070370000000     0.307897   
C45      C      0.233480000000     0.051810000000     0.390720000000    -0.00310507 
C46      C      0.280550000000     0.514720000000     0.390720000000     0.0186494  
C47      C      0.224010000000     0.038910000000     0.357710000000    -0.0113361  
C48      C      0.268450000000     0.497710000000     0.360630000000    -0.0616231  
C49      C      0.296300000000     0.483590000000     0.342650000000     0.312952   
C50      C      0.227560000000     0.036150000000     0.137860000000    -0.00377448 
C51      C      0.268760000000     0.491680000000     0.140290000000     0.0135943  
C52      C      0.212740000000     0.019490000000     0.108850000000    -0.00975267 
C53      C      0.254500000000     0.476310000000     0.110220000000    -0.0581197  
C54      C      0.279360000000     0.457330000000     0.092060000000     0.317859   
C55      C      0.516230000000     0.237630000000     0.403390000000    -0.00474566 
C56      C      0.480650000000     0.286660000000     0.408660000000     0.0125738  
C57      C      0.030260000000     0.252000000000     0.373070000000    -0.00673263 
C58      C      0.991160000000     0.297990000000     0.375140000000    -0.0602762  
C59      C      0.464140000000     0.314720000000     0.357950000000     0.313738   
C60      C      0.000790000000     0.227230000000     0.127000000000     7.76516e-05
C61      C      0.035060000000     0.277200000000     0.125550000000     0.0173879  
C62      C      0.481080000000     0.242520000000     0.154080000000    -0.0143652  
C63      C      0.514790000000     0.292830000000     0.151550000000    -0.0584724  
C64      C      0.033030000000     0.318340000000     0.170080000000     0.31709    
C65      C      0.105230000000     0.033960000000     0.275860000000    -0.00554257 
C66      C      0.105140000000     0.501660000000     0.223920000000     0.0193826  
C67      C      0.138240000000     0.043990000000     0.264840000000    -0.00311674 
C68      C      0.137920000000     0.489680000000     0.235060000000    -0.0560899  
C69      C      0.135300000000     0.459910000000     0.255970000000     0.327444   
C70      C      0.357500000000     0.488750000000     0.252280000000    -0.00623533 
C71      C      0.354550000000     0.041710000000     0.222260000000     0.0135998  
C72      C      0.387310000000     0.500390000000     0.269080000000    -0.00800256 
C73      C      0.386760000000     0.051680000000     0.236370000000    -0.0579801  
C74      C      0.405230000000     0.072610000000     0.213170000000     0.312727   
C75      C      0.465330000000     0.377830000000     0.247320000000    -0.00069868 
C76      C      0.010840000000     0.381220000000     0.285840000000     0.0191782  
C77      C      0.479440000000     0.406270000000     0.228170000000    -0.0138596  
C78      C      0.025230000000     0.408970000000     0.266580000000    -0.0560138  
C79      C      0.045840000000     0.430610000000     0.287180000000     0.315098   
C80      C      0.012130000000     0.134600000000     0.225360000000    -0.00486434 
C81      C      0.475730000000     0.132190000000     0.272860000000     0.0173362  
C82      C      0.034320000000     0.157500000000     0.243980000000    -0.0121841  
C83      C      0.498560000000     0.153720000000     0.291510000000    -0.0557877  
C84      C      0.482560000000     0.172170000000     0.318290000000     0.315512   
C85      C      0.495430000000     0.081810000000     0.748080000000     0.481008   
C86      C      0.496920000000     0.459180000000     0.748860000000     0.477949   
C87      C      0.436530000000     0.521660000000     0.748040000000     0.47921    
C88      C      0.055660000000     0.519680000000     0.749120000000     0.484961   
C89      C      0.001240000000     0.266660000000     0.703820000000     0.47508    
C90      C      0.004840000000     0.270140000000     0.824140000000     0.478578   
C91      C      0.494970000000     0.328570000000     0.763320000000     0.485815   
C92      C      0.511300000000     0.207190000000     0.766260000000     0.476962   
C93      C      0.306750000000     0.017290000000     0.746020000000     0.48123    
C94      C      0.187500000000     0.016170000000     0.751060000000     0.479894   
C95      C      0.245330000000     0.513860000000     0.689070000000     0.476881   
C96      C      0.249070000000     0.519610000000     0.809210000000     0.479467   
C97      C      0.240050000000     0.005280000000     0.559060000000     0.477115   
C98      C      0.250340000000     0.023570000000     0.940100000000     0.479456   
C99      C      0.258740000000     0.073520000000     0.009270000000     0.476697   
C100     C      0.231510000000     0.455270000000     0.989490000000     0.479626   
C101     C      0.012930000000     0.254780000000     0.575820000000     0.478028   
C102     C      0.005870000000     0.262130000000     0.955620000000     0.471811   
C103     C      0.069380000000     0.256780000000     0.012750000000     0.467181   
C104     C      0.449300000000     0.260170000000     0.019060000000     0.470445   
C105     C      0.267470000000     0.206350000000     0.011830000000     0.467865   
C106     C      0.253040000000     0.328410000000     0.000300000000     0.459548   
C107     C      0.200380000000     0.261210000000     0.504830000000     0.476135   
C108     C      0.320060000000     0.273390000000     0.507660000000     0.47006    
C109     C      0.371770000000     0.261220000000     0.982720000000    -0.00545745 
C110     C      0.369070000000     0.294350000000     0.533050000000     0.0116662  
C111     C      0.398930000000     0.241150000000     0.996880000000     0.00143565 
C112     C      0.398450000000     0.276160000000     0.545880000000    -0.0575583  
C113     C      0.417900000000     0.297730000000     0.567650000000     0.314584   
C114     C      0.119550000000     0.279710000000     0.532020000000    -0.00580334 
C115     C      0.119100000000     0.227300000000     0.500990000000     0.0129051  
C116     C      0.151010000000     0.288960000000     0.016480000000    -0.0169224  
C117     C      0.149950000000     0.237560000000     0.983860000000    -0.046618   
C118     C      0.168760000000     0.207490000000     0.975110000000     0.309975   
C119     C      0.235110000000     0.380510000000     0.523690000000    -0.011653   
C120     C      0.260100000000     0.378960000000     0.969030000000     0.0124345  
C121     C      0.210390000000     0.404910000000     0.511420000000    -0.00608524 
C122     C      0.235680000000     0.404170000000     0.957610000000    -0.0533757  
C123     C      0.247960000000     0.424960000000     0.930520000000     0.308736   
C124     C      0.289290000000     0.155500000000     0.989190000000    -0.00109818 
C125     C      0.269460000000     0.156580000000     0.545190000000     0.0138992  
C126     C      0.272490000000     0.123240000000     0.983150000000    -0.00720615 
C127     C      0.252320000000     0.123860000000     0.539900000000    -0.0586602  
C128     C      0.253790000000     0.104370000000     0.570370000000     0.307748   
C129     C      0.233480000000     0.051810000000     0.890720000000    -0.00306308 
C130     C      0.280550000000     0.514720000000     0.890720000000     0.0184638  
C131     C      0.224010000000     0.038910000000     0.857710000000    -0.0113572  
C132     C      0.268450000000     0.497710000000     0.860630000000    -0.0615659  
C133     C      0.296300000000     0.483590000000     0.842660000000     0.312884   
C134     C      0.227560000000     0.036150000000     0.637860000000    -0.00372127 
C135     C      0.268760000000     0.491680000000     0.640290000000     0.0135468  
C136     C      0.212740000000     0.019490000000     0.608850000000    -0.00991541 
C137     C      0.254500000000     0.476310000000     0.610220000000    -0.0580396  
C138     C      0.279360000000     0.457330000000     0.592060000000     0.318017   
C139     C      0.516230000000     0.237630000000     0.903390000000    -0.0048182  
C140     C      0.480650000000     0.286660000000     0.908660000000     0.0124825  
C141     C      0.030260000000     0.252000000000     0.873060000000    -0.00669801 
C142     C      0.991160000000     0.297990000000     0.875140000000    -0.0602438  
C143     C      0.464140000000     0.314720000000     0.857950000000     0.313829   
C144     C      0.000790000000     0.227230000000     0.627000000000     0.000102723
C145     C      0.035060000000     0.277200000000     0.625550000000     0.0173922  
C146     C      0.481080000000     0.242520000000     0.654080000000    -0.0143711  
C147     C      0.514790000000     0.292830000000     0.651550000000    -0.0584758  
C148     C      0.033030000000     0.318340000000     0.670080000000     0.317119   
C149     C      0.105230000000     0.033960000000     0.775860000000    -0.00557766 
C150     C      0.105140000000     0.501660000000     0.723920000000     0.0193362  
C151     C      0.138240000000     0.043990000000     0.764840000000    -0.00311412 
C152     C      0.137920000000     0.489680000000     0.735060000000    -0.0560672  
C153     C      0.135300000000     0.459910000000     0.755970000000     0.327404   
C154     C      0.357500000000     0.488750000000     0.752280000000    -0.00623747 
C155     C      0.354550000000     0.041710000000     0.722260000000     0.0135741  
C156     C      0.387310000000     0.500390000000     0.769080000000    -0.00803411 
C157     C      0.386760000000     0.051680000000     0.736370000000    -0.0579646  
C158     C      0.405230000000     0.072610000000     0.713170000000     0.312689   
C159     C      0.465330000000     0.377830000000     0.747310000000    -0.000765418
C160     C      0.010840000000     0.381220000000     0.785840000000     0.0191237  
C161     C      0.479440000000     0.406270000000     0.728170000000    -0.0138534  
C162     C      0.025230000000     0.408970000000     0.766580000000    -0.0559152  
C163     C      0.045840000000     0.430610000000     0.787180000000     0.31492    
C164     C      0.012130000000     0.134600000000     0.725360000000    -0.00488013 
C165     C      0.475730000000     0.132190000000     0.772860000000     0.0173336  
C166     C      0.034320000000     0.157500000000     0.743980000000    -0.012133   
C167     C      0.498560000000     0.153720000000     0.791510000000    -0.055823   
C168     C      0.482560000000     0.172170000000     0.818290000000     0.315568   
C169     C      0.495430000000     0.581810000000     0.248080000000     0.481185   
C170     C      0.496920000000     0.959180000000     0.248860000000     0.478042   
C171     C      0.436530000000     0.021660000000     0.248040000000     0.479259   
C172     C      0.055660000000     0.019680000000     0.249120000000     0.484998   
C173     C      0.001240000000     0.766660000000     0.203820000000     0.474999   
C174     C      0.004840000000     0.770140000000     0.324140000000     0.478591   
C175     C      0.494970000000     0.828560000000     0.263320000000     0.485936   
C176     C      0.511300000000     0.707180000000     0.266260000000     0.476876   
C177     C      0.306750000000     0.517290000000     0.246020000000     0.481422   
C178     C      0.187500000000     0.516170000000     0.251060000000     0.479751   
C179     C      0.245330000000     0.013860000000     0.189070000000     0.476701   
C180     C      0.249070000000     0.019610000000     0.309210000000     0.479288   
C181     C      0.240050000000     0.505280000000     0.059060000000     0.477505   
C182     C      0.250340000000     0.523570000000     0.440100000000     0.479812   
C183     C      0.258740000000     0.573520000000     0.509270000000     0.47691    
C184     C      0.231510000000     0.955270000000     0.489490000000     0.479317   
C185     C      0.012930000000     0.754780000000     0.075820000000     0.477651   
C186     C      0.005870000000     0.762130000000     0.455620000000     0.472622   
C187     C      0.069380000000     0.756780000000     0.512750000000     0.468779   
C188     C      0.449300000000     0.760170000000     0.519060000000     0.471267   
C189     C      0.267470000000     0.706350000000     0.511830000000     0.475109   
C190     C      0.253040000000     0.828410000000     0.500300000000     0.471306   
C191     C      0.200380000000     0.761210000000     0.004830000000     0.468755   
C192     C      0.320060000000     0.773390000000     0.007660000000     0.463011   
C193     C      0.371770000000     0.761220000000     0.482720000000    -0.00692275 
C194     C      0.369070000000     0.794350000000     0.033050000000     0.0110193  
C195     C      0.398930000000     0.741150000000     0.496890000000    -0.00938628 
C196     C      0.398450000000     0.776160000000     0.045880000000    -0.0575671  
C197     C      0.417900000000     0.797740000000     0.067650000000     0.314467   
C198     C      0.119550000000     0.779710000000     0.032020000000    -0.00465929 
C199     C      0.119100000000     0.727300000000     0.000990000000    -0.000137403
C200     C      0.151010000000     0.788960000000     0.516480000000    -0.00996266 
C201     C      0.149950000000     0.737560000000     0.483860000000    -0.0570806  
C202     C      0.168760000000     0.707490000000     0.475110000000     0.311925   
C203     C      0.235110000000     0.880510000000     0.023690000000    -0.0157565  
C204     C      0.260100000000     0.878960000000     0.469030000000     0.0126372  
C205     C      0.210390000000     0.904910000000     0.011420000000    -0.00945376 
C206     C      0.235680000000     0.904170000000     0.457620000000    -0.0537222  
C207     C      0.247960000000     0.924960000000     0.430520000000     0.308867   
C208     C      0.289290000000     0.655500000000     0.489190000000    -0.00419946 
C209     C      0.269460000000     0.656580000000     0.045190000000     0.0131784  
C210     C      0.272490000000     0.623240000000     0.483150000000    -0.0110591  
C211     C      0.252320000000     0.623860000000     0.039910000000    -0.0589673  
C212     C      0.253790000000     0.604370000000     0.070370000000     0.307897   
C213     C      0.233480000000     0.551810000000     0.390720000000    -0.00313919 
C214     C      0.280550000000     0.014720000000     0.390720000000     0.0182962  
C215     C      0.224010000000     0.538910000000     0.357710000000    -0.0113252  
C216     C      0.268450000000     0.997710000000     0.360630000000    -0.0613748  
C217     C      0.296300000000     0.983590000000     0.342650000000     0.313109   
C218     C      0.227560000000     0.536150000000     0.137860000000    -0.00376374 
C219     C      0.268760000000     0.991680000000     0.140290000000     0.0138546  
C220     C      0.212740000000     0.519490000000     0.108850000000    -0.00974021 
C221     C      0.254500000000     0.976310000000     0.110220000000    -0.0580587  
C222     C      0.279360000000     0.957330000000     0.092060000000     0.317889   
C223     C      0.516230000000     0.737630000000     0.403390000000    -0.00474649 
C224     C      0.480650000000     0.786660000000     0.408660000000     0.0125861  
C225     C      0.030260000000     0.752000000000     0.373070000000    -0.00673327 
C226     C      0.991160000000     0.797990000000     0.375140000000    -0.0603214  
C227     C      0.464140000000     0.814720000000     0.357950000000     0.313757   
C228     C      0.000790000000     0.727230000000     0.127000000000     7.57614e-05
C229     C      0.035060000000     0.777200000000     0.125550000000     0.0173791  
C230     C      0.481080000000     0.742520000000     0.154080000000    -0.0143696  
C231     C      0.514790000000     0.792830000000     0.151550000000    -0.0584554  
C232     C      0.033030000000     0.818340000000     0.170080000000     0.317043   
C233     C      0.105230000000     0.533960000000     0.275860000000    -0.00552349 
C234     C      0.105140000000     0.001660000000     0.223920000000     0.0190326  
C235     C      0.138240000000     0.543990000000     0.264840000000    -0.00312815 
C236     C      0.137920000000     0.989670000000     0.235060000000    -0.0558982  
C237     C      0.135300000000     0.959910000000     0.255970000000     0.327434   
C238     C      0.357500000000     0.988750000000     0.252280000000    -0.00590528 
C239     C      0.354550000000     0.541710000000     0.222260000000     0.0135926  
C240     C      0.387310000000     0.000390000000     0.269080000000    -0.00838417 
C241     C      0.386760000000     0.551680000000     0.236370000000    -0.0579585  
C242     C      0.405230000000     0.572610000000     0.213170000000     0.312716   
C243     C      0.465330000000     0.877830000000     0.247320000000    -0.000727408
C244     C      0.010840000000     0.881210000000     0.285840000000     0.0191706  
C245     C      0.479440000000     0.906270000000     0.228170000000    -0.0138537  
C246     C      0.025230000000     0.908970000000     0.266580000000    -0.0560036  
C247     C      0.045840000000     0.930610000000     0.287180000000     0.315101   
C248     C      0.012130000000     0.634600000000     0.225360000000    -0.00484628 
C249     C      0.475730000000     0.632190000000     0.272860000000     0.0173462  
C250     C      0.034320000000     0.657500000000     0.243980000000    -0.0121781  
C251     C      0.498560000000     0.653720000000     0.291510000000    -0.0557808  
C252     C      0.482560000000     0.672170000000     0.318290000000     0.315508   
C253     C      0.495430000000     0.581810000000     0.748080000000     0.48111    
C254     C      0.496920000000     0.959180000000     0.748860000000     0.477979   
C255     C      0.436530000000     0.021660000000     0.748040000000     0.479189   
C256     C      0.055660000000     0.019680000000     0.749120000000     0.484918   
C257     C      0.001240000000     0.766660000000     0.703820000000     0.475006   
C258     C      0.004840000000     0.770140000000     0.824140000000     0.478601   
C259     C      0.494970000000     0.828560000000     0.763320000000     0.4859     
C260     C      0.511300000000     0.707180000000     0.766260000000     0.476894   
C261     C      0.306750000000     0.517290000000     0.746020000000     0.481413   
C262     C      0.187500000000     0.516170000000     0.751060000000     0.479772   
C263     C      0.245330000000     0.013860000000     0.689070000000     0.476697   
C264     C      0.249070000000     0.019610000000     0.809210000000     0.479283   
C265     C      0.240050000000     0.505280000000     0.559060000000     0.47722    
C266     C      0.250340000000     0.523570000000     0.940100000000     0.479502   
C267     C      0.258740000000     0.573520000000     0.009270000000     0.476714   
C268     C      0.231510000000     0.955270000000     0.989490000000     0.479598   
C269     C      0.012930000000     0.754780000000     0.575820000000     0.478027   
C270     C      0.005870000000     0.762130000000     0.955620000000     0.47181    
C271     C      0.069380000000     0.756780000000     0.012750000000     0.467181   
C272     C      0.449300000000     0.760170000000     0.019060000000     0.470454   
C273     C      0.267470000000     0.706350000000     0.011830000000     0.467864   
C274     C      0.253040000000     0.828410000000     0.000300000000     0.459548   
C275     C      0.200380000000     0.761210000000     0.504830000000     0.476133   
C276     C      0.320060000000     0.773390000000     0.507660000000     0.470059   
C277     C      0.371770000000     0.761220000000     0.982720000000    -0.00546112 
C278     C      0.369070000000     0.794350000000     0.533050000000     0.0116234  
C279     C      0.398930000000     0.741150000000     0.996880000000     0.00143782 
C280     C      0.398450000000     0.776160000000     0.545880000000    -0.0574486  
C281     C      0.417900000000     0.797740000000     0.567650000000     0.314435   
C282     C      0.119550000000     0.779710000000     0.532020000000    -0.00579326 
C283     C      0.119100000000     0.727300000000     0.500990000000     0.0129302  
C284     C      0.151010000000     0.788960000000     0.016480000000    -0.0169542  
C285     C      0.149950000000     0.737560000000     0.983860000000    -0.0466152  
C286     C      0.168760000000     0.707490000000     0.975110000000     0.309921   
C287     C      0.235110000000     0.880510000000     0.523690000000    -0.0116524  
C288     C      0.260100000000     0.878960000000     0.969030000000     0.0124311  
C289     C      0.210390000000     0.904910000000     0.511420000000    -0.00608725 
C290     C      0.235680000000     0.904170000000     0.957610000000    -0.053371   
C291     C      0.247960000000     0.924960000000     0.930520000000     0.308734   
C292     C      0.289290000000     0.655500000000     0.989190000000    -0.0010987  
C293     C      0.269460000000     0.656580000000     0.545190000000     0.0138981  
C294     C      0.272490000000     0.623240000000     0.983150000000    -0.00720557 
C295     C      0.252320000000     0.623860000000     0.539900000000    -0.0586586  
C296     C      0.253790000000     0.604370000000     0.570370000000     0.307748   
C297     C      0.233480000000     0.551810000000     0.890720000000    -0.00309731 
C298     C      0.280550000000     0.014720000000     0.890720000000     0.0181109  
C299     C      0.224010000000     0.538910000000     0.857710000000    -0.0113462  
C300     C      0.268450000000     0.997710000000     0.860630000000    -0.0613178  
C301     C      0.296300000000     0.983590000000     0.842660000000     0.313041   
C302     C      0.227560000000     0.536150000000     0.637860000000    -0.00371049 
C303     C      0.268760000000     0.991680000000     0.640290000000     0.013808   
C304     C      0.212740000000     0.519490000000     0.608850000000    -0.00990292 
C305     C      0.254500000000     0.976310000000     0.610220000000    -0.0579784  
C306     C      0.279360000000     0.957330000000     0.592060000000     0.318048   
C307     C      0.516230000000     0.737630000000     0.903390000000    -0.00481903 
C308     C      0.480650000000     0.786660000000     0.908660000000     0.0124948  
C309     C      0.030260000000     0.752000000000     0.873060000000    -0.00669866 
C310     C      0.991160000000     0.797990000000     0.875140000000    -0.0602892  
C311     C      0.464140000000     0.814720000000     0.857950000000     0.313848   
C312     C      0.000790000000     0.727230000000     0.627000000000     0.000100827
C313     C      0.035060000000     0.777200000000     0.625550000000     0.0173833  
C314     C      0.481080000000     0.742520000000     0.654080000000    -0.0143754  
C315     C      0.514790000000     0.792830000000     0.651550000000    -0.0584588  
C316     C      0.033030000000     0.818340000000     0.670080000000     0.317072   
C317     C      0.105230000000     0.533960000000     0.775860000000    -0.00555855 
C318     C      0.105140000000     0.001660000000     0.723920000000     0.0189854  
C319     C      0.138240000000     0.543990000000     0.764840000000    -0.00312556 
C320     C      0.137920000000     0.989670000000     0.735060000000    -0.055875   
C321     C      0.135300000000     0.959910000000     0.755970000000     0.327393   
C322     C      0.357500000000     0.988750000000     0.752280000000    -0.00590702 
C323     C      0.354550000000     0.541710000000     0.722260000000     0.0135669  
C324     C      0.387310000000     0.000390000000     0.769080000000    -0.00841622 
C325     C      0.386760000000     0.551680000000     0.736370000000    -0.057943   
C326     C      0.405230000000     0.572610000000     0.713170000000     0.312678   
C327     C      0.465330000000     0.877830000000     0.747310000000    -0.000794171
C328     C      0.010840000000     0.881210000000     0.785840000000     0.0191161  
C329     C      0.479440000000     0.906270000000     0.728170000000    -0.0138476  
C330     C      0.025230000000     0.908970000000     0.766580000000    -0.055905   
C331     C      0.045840000000     0.930610000000     0.787180000000     0.314923   
C332     C      0.012130000000     0.634600000000     0.725360000000    -0.00486206 
C333     C      0.475730000000     0.632190000000     0.772860000000     0.0173436  
C334     C      0.034320000000     0.657500000000     0.743980000000    -0.012127   
C335     C      0.498560000000     0.653720000000     0.791510000000    -0.0558161  
C336     C      0.482560000000     0.672170000000     0.818290000000     0.315564   
C337     C      0.995430000000     0.081810000000     0.248080000000     0.479605   
C338     C      0.996920000000     0.459180000000     0.248860000000     0.477849   
C339     C      0.936530000000     0.521660000000     0.248040000000     0.47916    
C340     C      0.555670000000     0.519680000000     0.249120000000     0.485199   
C341     C      0.501240000000     0.266660000000     0.203820000000     0.473726   
C342     C      0.504840000000     0.270140000000     0.324140000000     0.477237   
C343     C      0.994970000000     0.328570000000     0.263320000000     0.484677   
C344     C      0.011300000000     0.207190000000     0.266260000000     0.478233   
C345     C      0.806750000000     0.017290000000     0.246020000000     0.481241   
C346     C      0.687500000000     0.016170000000     0.251060000000     0.479871   
C347     C      0.745330000000     0.513860000000     0.189070000000     0.476885   
C348     C      0.749070000000     0.519610000000     0.309210000000     0.479473   
C349     C      0.740050000000     0.005280000000     0.059060000000     0.477096   
C350     C      0.750340000000     0.023570000000     0.440100000000     0.479766   
C351     C      0.758730000000     0.073520000000     0.509270000000     0.476912   
C352     C      0.731510000000     0.455270000000     0.489490000000     0.479343   
C353     C      0.512930000000     0.254780000000     0.075820000000     0.477325   
C354     C      0.505870000000     0.262130000000     0.455620000000     0.472354   
C355     C      0.569380000000     0.256780000000     0.512750000000     0.468692   
C356     C      0.949300000000     0.260170000000     0.519060000000     0.471429   
C357     C      0.767470000000     0.206350000000     0.511830000000     0.475113   
C358     C      0.753040000000     0.328410000000     0.500300000000     0.471309   
C359     C      0.700380000000     0.261210000000     0.004830000000     0.468778   
C360     C      0.820060000000     0.273390000000     0.007660000000     0.463163   
C361     C      0.871770000000     0.261220000000     0.482720000000    -0.00690385 
C362     C      0.869070000000     0.294350000000     0.033050000000     0.0110887  
C363     C      0.898920000000     0.241150000000     0.496890000000    -0.00940251 
C364     C      0.898450000000     0.276160000000     0.045880000000    -0.0577162  
C365     C      0.917900000000     0.297730000000     0.067650000000     0.314651   
C366     C      0.619550000000     0.279710000000     0.032020000000    -0.00466547 
C367     C      0.619100000000     0.227300000000     0.000990000000    -0.000145987
C368     C      0.651010000000     0.288960000000     0.516480000000    -0.00993586 
C369     C      0.649950000000     0.237560000000     0.483860000000    -0.0570882  
C370     C      0.668760000000     0.207490000000     0.475110000000     0.311978   
C371     C      0.735110000000     0.380510000000     0.023690000000    -0.0157366  
C372     C      0.760100000000     0.378960000000     0.469030000000     0.0126462  
C373     C      0.710390000000     0.404910000000     0.011420000000    -0.00947497 
C374     C      0.735680000000     0.404170000000     0.457620000000    -0.0537307  
C375     C      0.747960000000     0.424960000000     0.430520000000     0.308875   
C376     C      0.789290000000     0.155500000000     0.489190000000    -0.00419341 
C377     C      0.769460000000     0.156580000000     0.045190000000     0.0131908  
C378     C      0.772490000000     0.123240000000     0.483150000000    -0.0110607  
C379     C      0.752320000000     0.123860000000     0.039910000000    -0.0589809  
C380     C      0.753790000000     0.104370000000     0.070370000000     0.307904   
C381     C      0.733480000000     0.051810000000     0.390720000000    -0.00309041 
C382     C      0.780550000000     0.514720000000     0.390720000000     0.0186537  
C383     C      0.724010000000     0.038910000000     0.357710000000    -0.0113742  
C384     C      0.768450000000     0.497710000000     0.360630000000    -0.0616202  
C385     C      0.796300000000     0.483590000000     0.342650000000     0.312958   
C386     C      0.727560000000     0.036150000000     0.137860000000    -0.00377274 
C387     C      0.768760000000     0.491680000000     0.140290000000     0.0136014  
C388     C      0.712740000000     0.019490000000     0.108850000000    -0.00975559 
C389     C      0.754500000000     0.476310000000     0.110220000000    -0.0581311  
C390     C      0.779360000000     0.457330000000     0.092060000000     0.317863   
C391     C      0.016230000000     0.237630000000     0.403390000000    -0.00338135 
C392     C      0.980650000000     0.286660000000     0.408660000000     0.0122599  
C393     C      0.530260000000     0.252000000000     0.373070000000    -0.0064648  
C394     C      0.491160000000     0.297990000000     0.375140000000    -0.0585769  
C395     C      0.964140000000     0.314720000000     0.357950000000     0.314057   
C396     C      0.500790000000     0.227230000000     0.127000000000    -0.00237799 
C397     C      0.535060000000     0.277200000000     0.125550000000     0.0175644  
C398     C      0.981080000000     0.242520000000     0.154080000000    -0.0163744  
C399     C      0.014790000000     0.292830000000     0.151550000000    -0.0572705  
C400     C      0.533030000000     0.318340000000     0.170080000000     0.317421   
C401     C      0.605230000000     0.033960000000     0.275860000000    -0.00550041 
C402     C      0.605140000000     0.501660000000     0.223920000000     0.019437   
C403     C      0.638240000000     0.043990000000     0.264840000000    -0.00312951 
C404     C      0.637920000000     0.489680000000     0.235060000000    -0.0561024  
C405     C      0.635300000000     0.459910000000     0.255970000000     0.327421   
C406     C      0.857500000000     0.488750000000     0.252280000000    -0.00623174 
C407     C      0.854550000000     0.041710000000     0.222260000000     0.0136012  
C408     C      0.887310000000     0.500390000000     0.269080000000    -0.00800608 
C409     C      0.886760000000     0.051680000000     0.236370000000    -0.0579757  
C410     C      0.905230000000     0.072610000000     0.213170000000     0.312665   
C411     C      0.965330000000     0.377830000000     0.247320000000    -0.00076738 
C412     C      0.510840000000     0.381220000000     0.285840000000     0.0173235  
C413     C      0.979440000000     0.406270000000     0.228170000000    -0.0139292  
C414     C      0.525230000000     0.408970000000     0.266580000000    -0.0563567  
C415     C      0.545840000000     0.430610000000     0.287180000000     0.314966   
C416     C      0.512130000000     0.134600000000     0.225360000000    -0.00682862 
C417     C      0.975720000000     0.132190000000     0.272860000000     0.0176495  
C418     C      0.534330000000     0.157500000000     0.243980000000    -0.0118673  
C419     C      0.998560000000     0.153720000000     0.291510000000    -0.0576085  
C420     C      0.982560000000     0.172170000000     0.318290000000     0.315899   
C421     C      0.995430000000     0.081810000000     0.748080000000     0.479509   
C422     C      0.996920000000     0.459180000000     0.748860000000     0.477782   
C423     C      0.936530000000     0.521660000000     0.748040000000     0.479088   
C424     C      0.555670000000     0.519680000000     0.749120000000     0.485122   
C425     C      0.501240000000     0.266660000000     0.703820000000     0.473716   
C426     C      0.504840000000     0.270140000000     0.824140000000     0.477231   
C427     C      0.994970000000     0.328570000000     0.763320000000     0.484621   
C428     C      0.011300000000     0.207190000000     0.766260000000     0.478267   
C429     C      0.806750000000     0.017290000000     0.746020000000     0.481232   
C430     C      0.687500000000     0.016170000000     0.751060000000     0.479892   
C431     C      0.745330000000     0.513860000000     0.689070000000     0.476882   
C432     C      0.749070000000     0.519610000000     0.809210000000     0.479468   
C433     C      0.740050000000     0.005280000000     0.559060000000     0.47681    
C434     C      0.750340000000     0.023570000000     0.940100000000     0.479458   
C435     C      0.758730000000     0.073520000000     0.009270000000     0.47672    
C436     C      0.731510000000     0.455270000000     0.989490000000     0.479624   
C437     C      0.512930000000     0.254780000000     0.575820000000     0.477698   
C438     C      0.505870000000     0.262130000000     0.955620000000     0.471542   
C439     C      0.569380000000     0.256780000000     0.012750000000     0.467096   
C440     C      0.949300000000     0.260170000000     0.019060000000     0.470615   
C441     C      0.767470000000     0.206350000000     0.011830000000     0.467888   
C442     C      0.753040000000     0.328410000000     0.000300000000     0.459581   
C443     C      0.700380000000     0.261210000000     0.504830000000     0.476141   
C444     C      0.820060000000     0.273390000000     0.507660000000     0.470188   
C445     C      0.871770000000     0.261220000000     0.982720000000    -0.00545018 
C446     C      0.869070000000     0.294350000000     0.533050000000     0.0116916  
C447     C      0.898920000000     0.241150000000     0.996880000000     0.00136777 
C448     C      0.898450000000     0.276160000000     0.545880000000    -0.0575983  
C449     C      0.917900000000     0.297730000000     0.567650000000     0.314619   
C450     C      0.619550000000     0.279710000000     0.532020000000    -0.00579703 
C451     C      0.619100000000     0.227300000000     0.500990000000     0.0129105  
C452     C      0.651010000000     0.288960000000     0.016480000000    -0.0169164  
C453     C      0.649950000000     0.237560000000     0.983860000000    -0.0466343  
C454     C      0.668760000000     0.207490000000     0.975110000000     0.309977   
C455     C      0.735110000000     0.380510000000     0.523690000000    -0.0116429  
C456     C      0.760100000000     0.378960000000     0.969030000000     0.0124412  
C457     C      0.710390000000     0.404910000000     0.511420000000    -0.00611587 
C458     C      0.735680000000     0.404170000000     0.957610000000    -0.0533808  
C459     C      0.747960000000     0.424960000000     0.930520000000     0.308742   
C460     C      0.789290000000     0.155500000000     0.989190000000    -0.00110137 
C461     C      0.769460000000     0.156580000000     0.545190000000     0.0139086  
C462     C      0.772490000000     0.123240000000     0.983150000000    -0.0072178  
C463     C      0.752320000000     0.123860000000     0.539900000000    -0.058673   
C464     C      0.753790000000     0.104370000000     0.570370000000     0.307756   
C465     C      0.733480000000     0.051810000000     0.890720000000    -0.00304843 
C466     C      0.780550000000     0.514720000000     0.890720000000     0.0184688  
C467     C      0.724010000000     0.038910000000     0.857710000000    -0.0113953  
C468     C      0.768450000000     0.497710000000     0.860630000000    -0.0615633  
C469     C      0.796300000000     0.483590000000     0.842660000000     0.31289    
C470     C      0.727560000000     0.036150000000     0.637860000000    -0.00371959 
C471     C      0.768760000000     0.491680000000     0.640290000000     0.0135541  
C472     C      0.712740000000     0.019490000000     0.608850000000    -0.009918   
C473     C      0.754500000000     0.476310000000     0.610220000000    -0.0580514  
C474     C      0.779360000000     0.457330000000     0.592060000000     0.318022   
C475     C      0.016230000000     0.237630000000     0.903390000000    -0.00343304 
C476     C      0.980650000000     0.286660000000     0.908660000000     0.0121627  
C477     C      0.530260000000     0.252000000000     0.873060000000    -0.00642578 
C478     C      0.491160000000     0.297990000000     0.875140000000    -0.0585169  
C479     C      0.964140000000     0.314720000000     0.857950000000     0.314153   
C480     C      0.500790000000     0.227230000000     0.627000000000    -0.00238739 
C481     C      0.535060000000     0.277200000000     0.625550000000     0.0175714  
C482     C      0.981080000000     0.242520000000     0.654080000000    -0.0164104  
C483     C      0.014790000000     0.292830000000     0.651550000000    -0.0572565  
C484     C      0.533030000000     0.318340000000     0.670080000000     0.317455   
C485     C      0.605230000000     0.033960000000     0.775860000000    -0.0055352  
C486     C      0.605140000000     0.501660000000     0.723920000000     0.0193911  
C487     C      0.638240000000     0.043990000000     0.764840000000    -0.00312701 
C488     C      0.637920000000     0.489680000000     0.735060000000    -0.0560799  
C489     C      0.635300000000     0.459910000000     0.755970000000     0.327381   
C490     C      0.857500000000     0.488750000000     0.752280000000    -0.00623381 
C491     C      0.854550000000     0.041710000000     0.722260000000     0.0135757  
C492     C      0.887310000000     0.500390000000     0.769080000000    -0.00803755 
C493     C      0.886760000000     0.051680000000     0.736370000000    -0.0579605  
C494     C      0.905230000000     0.072610000000     0.713170000000     0.312627   
C495     C      0.965330000000     0.377830000000     0.747310000000    -0.000835473
C496     C      0.510840000000     0.381220000000     0.785840000000     0.0172436  
C497     C      0.979440000000     0.406270000000     0.728170000000    -0.0139236  
C498     C      0.525230000000     0.408970000000     0.766580000000    -0.0562625  
C499     C      0.545840000000     0.430610000000     0.787180000000     0.314786   
C500     C      0.512130000000     0.134600000000     0.725360000000    -0.00687243 
C501     C      0.975720000000     0.132190000000     0.772860000000     0.0176536  
C502     C      0.534330000000     0.157500000000     0.743980000000    -0.01181    
C503     C      0.998560000000     0.153720000000     0.791510000000    -0.0576736  
C504     C      0.982560000000     0.172170000000     0.818290000000     0.315962   
C505     C      0.995430000000     0.581810000000     0.248080000000     0.479708   
C506     C      0.996920000000     0.959180000000     0.248860000000     0.47788    
C507     C      0.936530000000     0.021660000000     0.248040000000     0.47914    
C508     C      0.555670000000     0.019680000000     0.249120000000     0.485155   
C509     C      0.501240000000     0.766660000000     0.203820000000     0.473652   
C510     C      0.504840000000     0.770140000000     0.324140000000     0.47726    
C511     C      0.994970000000     0.828560000000     0.263320000000     0.484763   
C512     C      0.011300000000     0.707180000000     0.266260000000     0.478164   
C513     C      0.806750000000     0.517290000000     0.246020000000     0.481424   
C514     C      0.687500000000     0.516170000000     0.251060000000     0.47975    
C515     C      0.745330000000     0.013860000000     0.189070000000     0.476701   
C516     C      0.749070000000     0.019610000000     0.309210000000     0.479288   
C517     C      0.740050000000     0.505280000000     0.059060000000     0.4772     
C518     C      0.750340000000     0.523570000000     0.440100000000     0.479812   
C519     C      0.758730000000     0.573520000000     0.509270000000     0.476929   
C520     C      0.731510000000     0.955270000000     0.489490000000     0.479315   
C521     C      0.512930000000     0.754780000000     0.075820000000     0.477324   
C522     C      0.505870000000     0.762130000000     0.455620000000     0.472353   
C523     C      0.569380000000     0.756780000000     0.512750000000     0.468692   
C524     C      0.949300000000     0.760170000000     0.519060000000     0.471438   
C525     C      0.767470000000     0.706350000000     0.511830000000     0.475113   
C526     C      0.753040000000     0.828410000000     0.500300000000     0.471309   
C527     C      0.700380000000     0.761210000000     0.004830000000     0.468776   
C528     C      0.820060000000     0.773390000000     0.007660000000     0.463162   
C529     C      0.871770000000     0.761220000000     0.482720000000    -0.00690751 
C530     C      0.869070000000     0.794350000000     0.033050000000     0.0110458  
C531     C      0.898920000000     0.741150000000     0.496890000000    -0.00940065 
C532     C      0.898450000000     0.776160000000     0.045880000000    -0.0576063  
C533     C      0.917900000000     0.797740000000     0.067650000000     0.314502   
C534     C      0.619550000000     0.779710000000     0.032020000000    -0.00465473 
C535     C      0.619100000000     0.727300000000     0.000990000000    -0.000118459
C536     C      0.651010000000     0.788960000000     0.516480000000    -0.00996575 
C537     C      0.649950000000     0.737560000000     0.483860000000    -0.0570849  
C538     C      0.668760000000     0.707490000000     0.475110000000     0.311924   
C539     C      0.735110000000     0.880510000000     0.023690000000    -0.015736   
C540     C      0.760100000000     0.878960000000     0.469030000000     0.0126427  
C541     C      0.710390000000     0.904910000000     0.011420000000    -0.009477   
C542     C      0.735680000000     0.904170000000     0.457620000000    -0.0537259  
C543     C      0.747960000000     0.924960000000     0.430520000000     0.308873   
C544     C      0.789290000000     0.655500000000     0.489190000000    -0.00419405 
C545     C      0.769460000000     0.656580000000     0.045190000000     0.0131896  
C546     C      0.772490000000     0.623240000000     0.483150000000    -0.0110604  
C547     C      0.752320000000     0.623860000000     0.039910000000    -0.0589793  
C548     C      0.753790000000     0.604370000000     0.070370000000     0.307905   
C549     C      0.733480000000     0.551810000000     0.390720000000    -0.00312443 
C550     C      0.780550000000     0.014720000000     0.390720000000     0.0182996  
C551     C      0.724010000000     0.538910000000     0.357710000000    -0.0113633  
C552     C      0.768450000000     0.997710000000     0.360630000000    -0.0613712  
C553     C      0.796300000000     0.983590000000     0.342650000000     0.313116   
C554     C      0.727560000000     0.536150000000     0.137860000000    -0.00376196 
C555     C      0.768760000000     0.991680000000     0.140290000000     0.0138625  
C556     C      0.712740000000     0.519490000000     0.108850000000    -0.00974312 
C557     C      0.754500000000     0.976310000000     0.110220000000    -0.0580699  
C558     C      0.779360000000     0.957330000000     0.092060000000     0.317894   
C559     C      0.016230000000     0.737630000000     0.403390000000    -0.00338265 
C560     C      0.980650000000     0.786660000000     0.408660000000     0.0122725  
C561     C      0.530260000000     0.752000000000     0.373070000000    -0.0064655  
C562     C      0.491160000000     0.797990000000     0.375140000000    -0.0586221  
C563     C      0.964140000000     0.814720000000     0.357950000000     0.314076   
C564     C      0.500790000000     0.727230000000     0.127000000000    -0.00237898 
C565     C      0.535060000000     0.777200000000     0.125550000000     0.0175555  
C566     C      0.981080000000     0.742520000000     0.154080000000    -0.016378   
C567     C      0.014790000000     0.792830000000     0.151550000000    -0.057254   
C568     C      0.533030000000     0.818340000000     0.170080000000     0.317373   
C569     C      0.605230000000     0.533960000000     0.275860000000    -0.00548123 
C570     C      0.605140000000     0.001660000000     0.223920000000     0.0190849  
C571     C      0.638240000000     0.543990000000     0.264840000000    -0.00314095 
C572     C      0.637920000000     0.989670000000     0.235060000000    -0.055909   
C573     C      0.635300000000     0.959910000000     0.255970000000     0.32741    
C574     C      0.857500000000     0.988750000000     0.252280000000    -0.00590124 
C575     C      0.854550000000     0.541710000000     0.222260000000     0.013594   
C576     C      0.887310000000     0.000390000000     0.269080000000    -0.00838812 
C577     C      0.886760000000     0.551680000000     0.236370000000    -0.0579541  
C578     C      0.905230000000     0.572610000000     0.213170000000     0.312655   
C579     C      0.965330000000     0.877830000000     0.247320000000    -0.00079596 
C580     C      0.510840000000     0.881210000000     0.285840000000     0.0173168  
C581     C      0.979440000000     0.906270000000     0.228170000000    -0.0139233  
C582     C      0.525230000000     0.908970000000     0.266580000000    -0.0563467  
C583     C      0.545840000000     0.930610000000     0.287180000000     0.31497    
C584     C      0.512130000000     0.634600000000     0.225360000000    -0.00680912 
C585     C      0.975720000000     0.632190000000     0.272860000000     0.0176593  
C586     C      0.534330000000     0.657500000000     0.243980000000    -0.0118618  
C587     C      0.998560000000     0.653720000000     0.291510000000    -0.057601   
C588     C      0.982560000000     0.672170000000     0.318290000000     0.315895   
C589     C      0.995430000000     0.581810000000     0.748080000000     0.479611   
C590     C      0.996920000000     0.959180000000     0.748860000000     0.477812   
C591     C      0.936530000000     0.021660000000     0.748040000000     0.479067   
C592     C      0.555670000000     0.019680000000     0.749120000000     0.485079   
C593     C      0.501240000000     0.766660000000     0.703820000000     0.473643   
C594     C      0.504840000000     0.770140000000     0.824140000000     0.477254   
C595     C      0.994970000000     0.828560000000     0.763320000000     0.484707   
C596     C      0.011300000000     0.707180000000     0.766260000000     0.478198   
C597     C      0.806750000000     0.517290000000     0.746020000000     0.481415   
C598     C      0.687500000000     0.516170000000     0.751060000000     0.479771   
C599     C      0.745330000000     0.013860000000     0.689070000000     0.476698   
C600     C      0.749070000000     0.019610000000     0.809210000000     0.479283   
C601     C      0.740050000000     0.505280000000     0.559060000000     0.476915   
C602     C      0.750340000000     0.523570000000     0.940100000000     0.479504   
C603     C      0.758730000000     0.573520000000     0.009270000000     0.476737   
C604     C      0.731510000000     0.955270000000     0.989490000000     0.479596   
C605     C      0.512930000000     0.754780000000     0.575820000000     0.477697   
C606     C      0.505870000000     0.762130000000     0.955620000000     0.471541   
C607     C      0.569380000000     0.756780000000     0.012750000000     0.467096   
C608     C      0.949300000000     0.760170000000     0.019060000000     0.470623   
C609     C      0.767470000000     0.706350000000     0.011830000000     0.467887   
C610     C      0.753040000000     0.828410000000     0.000300000000     0.45958    
C611     C      0.700380000000     0.761210000000     0.504830000000     0.476139   
C612     C      0.820060000000     0.773390000000     0.507660000000     0.470187   
C613     C      0.871770000000     0.761220000000     0.982720000000    -0.00545384 
C614     C      0.869070000000     0.794350000000     0.533050000000     0.0116487  
C615     C      0.898920000000     0.741150000000     0.996880000000     0.00136993 
C616     C      0.898450000000     0.776160000000     0.545880000000    -0.0574885  
C617     C      0.917900000000     0.797740000000     0.567650000000     0.31447    
C618     C      0.619550000000     0.779710000000     0.532020000000    -0.00578696 
C619     C      0.619100000000     0.727300000000     0.500990000000     0.0129357  
C620     C      0.651010000000     0.788960000000     0.016480000000    -0.0169481  
C621     C      0.649950000000     0.737560000000     0.983860000000    -0.0466314  
C622     C      0.668760000000     0.707490000000     0.975110000000     0.309923   
C623     C      0.735110000000     0.880510000000     0.523690000000    -0.0116422  
C624     C      0.760100000000     0.878960000000     0.969030000000     0.0124377  
C625     C      0.710390000000     0.904910000000     0.511420000000    -0.0061179  
C626     C      0.735680000000     0.904170000000     0.957610000000    -0.053376   
C627     C      0.747960000000     0.924960000000     0.930520000000     0.30874    
C628     C      0.789290000000     0.655500000000     0.989190000000    -0.00110189 
C629     C      0.769460000000     0.656580000000     0.545190000000     0.0139075  
C630     C      0.772490000000     0.623240000000     0.983150000000    -0.00721722 
C631     C      0.752320000000     0.623860000000     0.539900000000    -0.0586714  
C632     C      0.753790000000     0.604370000000     0.570370000000     0.307756   
C633     C      0.733480000000     0.551810000000     0.890720000000    -0.00308258 
C634     C      0.780550000000     0.014720000000     0.890720000000     0.018115   
C635     C      0.724010000000     0.538910000000     0.857710000000    -0.0113843  
C636     C      0.768450000000     0.997710000000     0.860630000000    -0.0613144  
C637     C      0.796300000000     0.983590000000     0.842660000000     0.313047   
C638     C      0.727560000000     0.536150000000     0.637860000000    -0.00370878 
C639     C      0.768760000000     0.991680000000     0.640290000000     0.0138161  
C640     C      0.712740000000     0.519490000000     0.608850000000    -0.0099055  
C641     C      0.754500000000     0.976310000000     0.610220000000    -0.0579899  
C642     C      0.779360000000     0.957330000000     0.592060000000     0.318052   
C643     C      0.016230000000     0.737630000000     0.903390000000    -0.00343433 
C644     C      0.980650000000     0.786660000000     0.908660000000     0.0121754  
C645     C      0.530260000000     0.752000000000     0.873060000000    -0.00642648 
C646     C      0.491160000000     0.797990000000     0.875140000000    -0.0585621  
C647     C      0.964140000000     0.814720000000     0.857950000000     0.314172   
C648     C      0.500790000000     0.727230000000     0.627000000000    -0.00238838 
C649     C      0.535060000000     0.777200000000     0.625550000000     0.0175625  
C650     C      0.981080000000     0.742520000000     0.654080000000    -0.016414   
C651     C      0.014790000000     0.792830000000     0.651550000000    -0.05724    
C652     C      0.533030000000     0.818340000000     0.670080000000     0.317407   
C653     C      0.605230000000     0.533960000000     0.775860000000    -0.00551598 
C654     C      0.605140000000     0.001660000000     0.723920000000     0.0190383  
C655     C      0.638240000000     0.543990000000     0.764840000000    -0.00313846 
C656     C      0.637920000000     0.989670000000     0.735060000000    -0.0558861  
C657     C      0.635300000000     0.959910000000     0.755970000000     0.32737    
C658     C      0.857500000000     0.988750000000     0.752280000000    -0.00590291 
C659     C      0.854550000000     0.541710000000     0.722260000000     0.0135685  
C660     C      0.887310000000     0.000390000000     0.769080000000    -0.00842008 
C661     C      0.886760000000     0.551680000000     0.736370000000    -0.0579388  
C662     C      0.905230000000     0.572610000000     0.713170000000     0.312617   
C663     C      0.965330000000     0.877830000000     0.747310000000    -0.000864077
C664     C      0.510840000000     0.881210000000     0.785840000000     0.0172369  
C665     C      0.979440000000     0.906270000000     0.728170000000    -0.0139177  
C666     C      0.525230000000     0.908970000000     0.766580000000    -0.0562525  
C667     C      0.545840000000     0.930610000000     0.787180000000     0.314789   
C668     C      0.512130000000     0.634600000000     0.725360000000    -0.0068529  
C669     C      0.975720000000     0.632190000000     0.772860000000     0.0176633  
C670     C      0.534330000000     0.657500000000     0.743980000000    -0.0118045  
C671     C      0.998560000000     0.653720000000     0.791510000000    -0.0576661  
C672     C      0.982560000000     0.672170000000     0.818290000000     0.315958   
H1       H      0.388770000000     0.219770000000     0.009520000000     0.036908   
H2       H      0.357640000000     0.245320000000     0.466680000000     0.0420287  
H3       H      0.388930000000     0.255900000000     0.060690000000     0.0610514  
H4       H      0.414190000000     0.232110000000     0.477150000000     0.0392197  
H5       H      0.382030000000     0.281280000000     0.468240000000     0.0452321  
H6       H      0.376880000000     0.317500000000     0.521820000000     0.0508254  
H7       H      0.353190000000     0.300860000000     0.053210000000     0.0439095  
H8       H      0.436770000000     0.342880000000     0.072910000000     0.179369   
H9       H      0.145850000000     0.305530000000     0.496190000000     0.0396874  
H10      H      0.105640000000     0.302200000000     0.036630000000     0.0403416  
H11      H      0.143070000000     0.250610000000     0.461650000000     0.0650261  
H12      H      0.165550000000     0.302960000000     0.033860000000     0.0397519  
H13      H      0.124790000000     0.268530000000     0.055560000000     0.0406407  
H14      H      0.125030000000     0.211540000000     0.021710000000     0.0506357  
H15      H      0.104210000000     0.212840000000     0.484300000000     0.0401478  
H16      H      0.194180000000     0.169760000000     0.493160000000     0.181874   
H17      H      0.189400000000     0.391090000000     0.002870000000     0.0389477  
H18      H      0.223870000000     0.364910000000     0.042150000000     0.0467412  
H19      H      0.215410000000     0.389840000000     0.448080000000     0.0621208  
H20      H      0.202800000000     0.421080000000     0.031300000000     0.0378933  
H21      H      0.254690000000     0.394250000000     0.035060000000     0.0629816  
H22      H      0.282160000000     0.391890000000     0.476110000000     0.0550074  
H23      H      0.266210000000     0.362320000000     0.449060000000     0.0483328  
H24      H      0.287460000000     0.439420000000     0.406770000000     0.186785   
H25      H      0.249590000000     0.128360000000     0.471030000000     0.0417654  
H26      H      0.290610000000     0.169350000000     0.466490000000     0.0433275  
H27      H      0.227090000000     0.129250000000     0.034190000000     0.0655991  
H28      H      0.287030000000     0.108220000000     0.466590000000     0.0360999  
H29      H      0.314000000000     0.150090000000     0.496690000000     0.0405884  
H30      H      0.293360000000     0.152010000000     0.055470000000     0.0464895  
H31      H      0.255770000000     0.171310000000     0.062660000000     0.0454128  
H32      H      0.283330000000     0.077890000000     0.098620000000     0.181616   
H33      H      0.203780000000     0.021890000000     0.360930000000     0.0473494  
H34      H      0.211790000000     0.058310000000     0.404320000000     0.0434123  
H35      H      0.252500000000     0.477560000000     0.368090000000     0.0813304  
H36      H      0.215230000000     0.059460000000     0.342880000000     0.0408169  
H37      H      0.247190000000     0.074620000000     0.387200000000     0.0379982  
H38      H      0.296860000000     0.534830000000     0.383900000000     0.0479959  
H39      H      0.294170000000     0.497040000000     0.405370000000     0.0428901  
H40      H      0.338690000000     0.494380000000     0.322750000000     0.178915   
H41      H      0.194130000000     0.502390000000     0.117280000000     0.0414152  
H42      H      0.208460000000     0.047710000000     0.152220000000     0.0427624  
H43      H      0.236660000000     0.458430000000     0.118950000000     0.0612512  
H44      H      0.201160000000     0.038420000000     0.093930000000     0.0535455  
H45      H      0.243860000000     0.055550000000     0.129730000000     0.0509357  
H46      H      0.289120000000     0.007340000000     0.133350000000     0.0484249  
H47      H      0.278140000000     0.472240000000     0.156180000000     0.0425248  
H48      H      0.324720000000     0.458110000000     0.075920000000     0.178128   
H49      H      0.050540000000     0.267980000000     0.379490000000     0.0450927  
H50      H      0.035010000000     0.223740000000     0.416080000000     0.043965   
H51      H      0.009850000000     0.316660000000     0.379170000000     0.0644936  
H52      H      0.039320000000     0.231870000000     0.357840000000     0.0527698  
H53      H      0.496880000000     0.220500000000     0.396930000000     0.0565527  
H54      H      0.457540000000     0.273800000000     0.406820000000     0.0463672  
H55      H      0.476660000000     0.308330000000     0.424050000000     0.0424252  
H56      H      0.452210000000     0.355110000000     0.332830000000     0.184326   
H57      H      0.460030000000     0.254590000000     0.143450000000     0.0582974  
H58      H      0.485170000000     0.211610000000     0.112130000000     0.0427997  
H59      H      0.495370000000     0.305790000000     0.138820000000     0.0691534  
H60      H      0.472630000000     0.222850000000     0.170200000000     0.0418407  
H61      H      0.019400000000     0.211600000000     0.137830000000     0.0377167  
H62      H      0.055320000000     0.264430000000     0.137000000000     0.0470945  
H63      H      0.045000000000     0.296270000000     0.109610000000     0.0426062  
H64      H      0.076220000000     0.330540000000     0.187740000000     0.180058   
H65      H      0.136120000000     0.063240000000     0.246350000000     0.0411209  
H66      H      0.092420000000     0.055910000000     0.284540000000     0.0386449  
H67      H      0.151300000000     0.482130000000     0.213400000000     0.0590229  
H68      H      0.151410000000     0.054540000000     0.285360000000     0.0396887  
H69      H      0.107100000000     0.016840000000     0.296250000000     0.0617807  
H70      H      0.091130000000     0.480950000000     0.214200000000     0.0504171  
H71      H      0.108500000000     0.519170000000     0.204010000000     0.0357703  
H72      H      0.128060000000     0.411060000000     0.255150000000     0.188264   
H73      H      0.380700000000     0.513320000000     0.291360000000     0.0436732  
H74      H      0.344190000000     0.472460000000     0.268650000000     0.0466383  
H75      H      0.381300000000     0.067130000000     0.257460000000     0.0645556  
H76      H      0.402010000000     0.478870000000     0.275510000000     0.0386572  
H77      H      0.364430000000     0.474400000000     0.230920000000     0.0442491  
H78      H      0.358310000000     0.030810000000     0.198300000000     0.0479797  
H79      H      0.339670000000     0.063790000000     0.218910000000     0.0433762  
H80      H      0.431040000000     0.114110000000     0.209280000000     0.183344   
H81      H      0.493930000000     0.396230000000     0.208390000000     0.0602389  
H82      H      0.452870000000     0.360990000000     0.230770000000     0.046391   
H83      H      0.041070000000     0.397300000000     0.248680000000     0.0678737  
H84      H      0.459820000000     0.420820000000     0.217640000000     0.0428288  
H85      H      0.447770000000     0.387760000000     0.264490000000     0.0395714  
H86      H      0.995730000000     0.391770000000     0.304930000000     0.0547344  
H87      H      0.029850000000     0.366740000000     0.297540000000     0.048862   
H88      H      0.051890000000     0.449090000000     0.331650000000     0.183436   
H89      H      0.053040000000     0.142560000000     0.255540000000     0.0408491  
H90      H      0.026430000000     0.119340000000     0.208880000000     0.0400008  
H91      H      0.015940000000     0.136890000000     0.302810000000     0.0630874  
H92      H      0.045870000000     0.174660000000     0.227080000000     0.0403964  
H93      H      0.495630000000     0.149700000000     0.210950000000     0.0379674  
H94      H      0.457730000000     0.147930000000     0.261130000000     0.054905   
H95      H      0.463010000000     0.115350000000     0.289210000000     0.0496833  
H96      H      0.441020000000     0.191690000000     0.333510000000     0.183529   
H97      H      0.388770000000     0.219770000000     0.509520000000     0.0426931  
H98      H      0.357640000000     0.245320000000     0.966680000000     0.0427546  
H99      H      0.388930000000     0.255900000000     0.560690000000     0.061275   
H100     H      0.414190000000     0.232110000000     0.977150000000     0.0385006  
H101     H      0.382030000000     0.281280000000     0.968230000000     0.0462672  
H102     H      0.376880000000     0.317500000000     0.021820000000     0.0497024  
H103     H      0.353190000000     0.300860000000     0.553210000000     0.0439193  
H104     H      0.436770000000     0.342880000000     0.572910000000     0.179621   
H105     H      0.145850000000     0.305530000000     0.996190000000     0.0454979  
H106     H      0.105640000000     0.302200000000     0.536630000000     0.0413723  
H107     H      0.143070000000     0.250610000000     0.961650000000     0.063835   
H108     H      0.165550000000     0.302960000000     0.533860000000     0.0387539  
H109     H      0.124790000000     0.268530000000     0.555560000000     0.0408694  
H110     H      0.125030000000     0.211540000000     0.521710000000     0.0492238  
H111     H      0.104210000000     0.212840000000     0.984300000000     0.0467136  
H112     H      0.194180000000     0.169760000000     0.993160000000     0.182765   
H113     H      0.189400000000     0.391090000000     0.502870000000     0.0402485  
H114     H      0.223870000000     0.364910000000     0.542150000000     0.0461399  
H115     H      0.215410000000     0.389840000000     0.948080000000     0.0629457  
H116     H      0.202800000000     0.421080000000     0.531300000000     0.038341   
H117     H      0.254690000000     0.394250000000     0.535050000000     0.0632677  
H118     H      0.282160000000     0.391890000000     0.976110000000     0.0565514  
H119     H      0.266210000000     0.362320000000     0.949060000000     0.0488901  
H120     H      0.287460000000     0.439420000000     0.906770000000     0.186947   
H121     H      0.249590000000     0.128360000000     0.971030000000     0.0422355  
H122     H      0.290610000000     0.169350000000     0.966490000000     0.0432831  
H123     H      0.227090000000     0.129250000000     0.534190000000     0.0667685  
H124     H      0.287030000000     0.108220000000     0.966590000000     0.0364801  
H125     H      0.314000000000     0.150090000000     0.996690000000     0.0421879  
H126     H      0.293360000000     0.152010000000     0.555470000000     0.0469972  
H127     H      0.255770000000     0.171310000000     0.562660000000     0.0454382  
H128     H      0.283330000000     0.077890000000     0.598620000000     0.181626   
H129     H      0.203780000000     0.021890000000     0.860930000000     0.0474552  
H130     H      0.211790000000     0.058310000000     0.904330000000     0.0437394  
H131     H      0.252500000000     0.477560000000     0.868090000000     0.0813389  
H132     H      0.215230000000     0.059460000000     0.842880000000     0.0408726  
H133     H      0.247190000000     0.074620000000     0.887200000000     0.0381925  
H134     H      0.296860000000     0.534830000000     0.883900000000     0.0483335  
H135     H      0.294170000000     0.497040000000     0.905370000000     0.043283   
H136     H      0.338690000000     0.494380000000     0.822750000000     0.179004   
H137     H      0.194130000000     0.502390000000     0.617280000000     0.0417202  
H138     H      0.208460000000     0.047710000000     0.652220000000     0.0428399  
H139     H      0.236660000000     0.458430000000     0.618950000000     0.0613395  
H140     H      0.201160000000     0.038420000000     0.593930000000     0.053917   
H141     H      0.243860000000     0.055550000000     0.629730000000     0.0509462  
H142     H      0.289120000000     0.007340000000     0.633350000000     0.0484861  
H143     H      0.278140000000     0.472240000000     0.656180000000     0.0425462  
H144     H      0.324720000000     0.458110000000     0.575920000000     0.178575   
H145     H      0.050540000000     0.267980000000     0.879490000000     0.0453623  
H146     H      0.035010000000     0.223740000000     0.916080000000     0.0445209  
H147     H      0.009850000000     0.316660000000     0.879170000000     0.0647962  
H148     H      0.039320000000     0.231870000000     0.857840000000     0.0528605  
H149     H      0.496880000000     0.220500000000     0.896930000000     0.0568779  
H150     H      0.457540000000     0.273800000000     0.906810000000     0.0467487  
H151     H      0.476660000000     0.308330000000     0.924050000000     0.0431594  
H152     H      0.452210000000     0.355110000000     0.832830000000     0.184434   
H153     H      0.460030000000     0.254590000000     0.643450000000     0.0583095  
H154     H      0.485170000000     0.211610000000     0.612130000000     0.0429644  
H155     H      0.495370000000     0.305790000000     0.638820000000     0.0692113  
H156     H      0.472630000000     0.222850000000     0.670200000000     0.0418664  
H157     H      0.019400000000     0.211600000000     0.637830000000     0.0378265  
H158     H      0.055320000000     0.264430000000     0.637000000000     0.0471333  
H159     H      0.045000000000     0.296270000000     0.609610000000     0.0427209  
H160     H      0.076220000000     0.330540000000     0.687740000000     0.180094   
H161     H      0.136120000000     0.063240000000     0.746350000000     0.0411565  
H162     H      0.092420000000     0.055910000000     0.784540000000     0.0387426  
H163     H      0.151300000000     0.482130000000     0.713400000000     0.059071   
H164     H      0.151410000000     0.054540000000     0.785360000000     0.0397246  
H165     H      0.107100000000     0.016840000000     0.796250000000     0.0618907  
H166     H      0.091130000000     0.480950000000     0.714200000000     0.0505071  
H167     H      0.108500000000     0.519170000000     0.704010000000     0.0359017  
H168     H      0.128060000000     0.411060000000     0.755150000000     0.188287   
H169     H      0.380700000000     0.513320000000     0.791360000000     0.0437934  
H170     H      0.344190000000     0.472460000000     0.768650000000     0.0466578  
H171     H      0.381300000000     0.067130000000     0.757460000000     0.0645924  
H172     H      0.402010000000     0.478870000000     0.775510000000     0.0387459  
H173     H      0.364430000000     0.474400000000     0.730920000000     0.044271   
H174     H      0.358310000000     0.030810000000     0.698300000000     0.0480354  
H175     H      0.339670000000     0.063790000000     0.718910000000     0.0433965  
H176     H      0.431040000000     0.114110000000     0.709280000000     0.183396   
H177     H      0.493930000000     0.396230000000     0.708390000000     0.0602978  
H178     H      0.452870000000     0.360990000000     0.730770000000     0.046418   
H179     H      0.041070000000     0.397300000000     0.748680000000     0.0678703  
H180     H      0.459820000000     0.420820000000     0.717640000000     0.0428854  
H181     H      0.447770000000     0.387760000000     0.764490000000     0.0396262  
H182     H      0.995730000000     0.391770000000     0.804930000000     0.0548522  
H183     H      0.029850000000     0.366740000000     0.797540000000     0.0489506  
H184     H      0.051890000000     0.449090000000     0.831660000000     0.183666   
H185     H      0.053040000000     0.142560000000     0.755540000000     0.0408724  
H186     H      0.026430000000     0.119340000000     0.708880000000     0.0401006  
H187     H      0.015940000000     0.136890000000     0.802810000000     0.063227   
H188     H      0.045870000000     0.174660000000     0.727080000000     0.0404144  
H189     H      0.495630000000     0.149700000000     0.710950000000     0.0380254  
H190     H      0.457730000000     0.147930000000     0.761130000000     0.0549151  
H191     H      0.463010000000     0.115350000000     0.789210000000     0.0497921  
H192     H      0.441020000000     0.191690000000     0.833510000000     0.183678   
H193     H      0.388770000000     0.719770000000     0.009520000000     0.0369086  
H194     H      0.357640000000     0.745320000000     0.466680000000     0.0420294  
H195     H      0.388930000000     0.755900000000     0.060690000000     0.0610358  
H196     H      0.414190000000     0.732110000000     0.477150000000     0.0392207  
H197     H      0.382030000000     0.781280000000     0.468240000000     0.0452343  
H198     H      0.376880000000     0.817500000000     0.521820000000     0.0508407  
H199     H      0.353190000000     0.800860000000     0.053210000000     0.0439207  
H200     H      0.436770000000     0.842880000000     0.072910000000     0.179455   
H201     H      0.145850000000     0.805530000000     0.496190000000     0.0396971  
H202     H      0.105640000000     0.802200000000     0.036630000000     0.0403423  
H203     H      0.143070000000     0.750610000000     0.461650000000     0.065018   
H204     H      0.165550000000     0.802950000000     0.033860000000     0.0397721  
H205     H      0.124790000000     0.768530000000     0.055560000000     0.0406379  
H206     H      0.125030000000     0.711530000000     0.021710000000     0.050623   
H207     H      0.104210000000     0.712840000000     0.484300000000     0.0401423  
H208     H      0.194180000000     0.669760000000     0.493160000000     0.181873   
H209     H      0.189400000000     0.891090000000     0.002870000000     0.0389562  
H210     H      0.223870000000     0.864910000000     0.042150000000     0.046744   
H211     H      0.215410000000     0.889840000000     0.448080000000     0.0621234  
H212     H      0.202800000000     0.921080000000     0.031300000000     0.0379177  
H213     H      0.254690000000     0.894250000000     0.035060000000     0.0629905  
H214     H      0.282160000000     0.891890000000     0.476110000000     0.0550159  
H215     H      0.266210000000     0.862320000000     0.449060000000     0.0483342  
H216     H      0.287460000000     0.939420000000     0.406770000000     0.186794   
H217     H      0.249590000000     0.628360000000     0.471030000000     0.0417658  
H218     H      0.290610000000     0.669350000000     0.466490000000     0.0433278  
H219     H      0.227090000000     0.629250000000     0.034190000000     0.0655995  
H220     H      0.287030000000     0.608220000000     0.466590000000     0.0361025  
H221     H      0.314000000000     0.650090000000     0.496690000000     0.0405917  
H222     H      0.293360000000     0.652010000000     0.055470000000     0.0464908  
H223     H      0.255770000000     0.671310000000     0.062660000000     0.0454117  
H224     H      0.283330000000     0.577890000000     0.098620000000     0.181624   
H225     H      0.203780000000     0.521890000000     0.360930000000     0.047386   
H226     H      0.211790000000     0.558300000000     0.404320000000     0.0434393  
H227     H      0.252500000000     0.977560000000     0.368090000000     0.0813103  
H228     H      0.215230000000     0.559460000000     0.342880000000     0.0408159  
H229     H      0.247190000000     0.574610000000     0.387200000000     0.038016   
H230     H      0.296860000000     0.034830000000     0.383900000000     0.0480494  
H231     H      0.294170000000     0.997040000000     0.405370000000     0.0430746  
H232     H      0.338690000000     0.994380000000     0.322750000000     0.179102   
H233     H      0.194130000000     0.002390000000     0.117280000000     0.0413702  
H234     H      0.208460000000     0.547710000000     0.152220000000     0.0427672  
H235     H      0.236660000000     0.958430000000     0.118950000000     0.0612712  
H236     H      0.201160000000     0.538420000000     0.093930000000     0.0535513  
H237     H      0.243860000000     0.555550000000     0.129730000000     0.0509379  
H238     H      0.289120000000     0.507340000000     0.133350000000     0.0485803  
H239     H      0.278140000000     0.972250000000     0.156180000000     0.0424998  
H240     H      0.324720000000     0.958110000000     0.075920000000     0.178151   
H241     H      0.050540000000     0.767980000000     0.379490000000     0.0450913  
H242     H      0.035010000000     0.723740000000     0.416080000000     0.0439664  
H243     H      0.009850000000     0.816650000000     0.379170000000     0.0645217  
H244     H      0.039320000000     0.731870000000     0.357840000000     0.0527691  
H245     H      0.496880000000     0.720500000000     0.396930000000     0.0565549  
H246     H      0.457540000000     0.773800000000     0.406820000000     0.0463658  
H247     H      0.476660000000     0.808330000000     0.424050000000     0.0424264  
H248     H      0.452210000000     0.855110000000     0.332830000000     0.184331   
H249     H      0.460030000000     0.754590000000     0.143450000000     0.0582979  
H250     H      0.485170000000     0.711610000000     0.112130000000     0.0428022  
H251     H      0.495370000000     0.805790000000     0.138820000000     0.0691487  
H252     H      0.472630000000     0.722850000000     0.170200000000     0.0418392  
H253     H      0.019400000000     0.711600000000     0.137830000000     0.0377143  
H254     H      0.055320000000     0.764430000000     0.137000000000     0.0470905  
H255     H      0.045000000000     0.796270000000     0.109610000000     0.0426083  
H256     H      0.076220000000     0.830550000000     0.187740000000     0.179943   
H257     H      0.136120000000     0.563240000000     0.246350000000     0.0411245  
H258     H      0.092420000000     0.555910000000     0.284540000000     0.0386427  
H259     H      0.151300000000     0.982130000000     0.213400000000     0.0590412  
H260     H      0.151410000000     0.554540000000     0.285360000000     0.0397011  
H261     H      0.107100000000     0.516840000000     0.296250000000     0.0618216  
H262     H      0.091130000000     0.980960000000     0.214200000000     0.0505922  
H263     H      0.108500000000     0.019170000000     0.204010000000     0.0358129  
H264     H      0.128060000000     0.911060000000     0.255150000000     0.188262   
H265     H      0.380700000000     0.013320000000     0.291360000000     0.0437085  
H266     H      0.344190000000     0.972460000000     0.268650000000     0.046589   
H267     H      0.381300000000     0.567130000000     0.257460000000     0.0645505  
H268     H      0.402010000000     0.978870000000     0.275510000000     0.0388344  
H269     H      0.364430000000     0.974400000000     0.230920000000     0.0442213  
H270     H      0.358310000000     0.530810000000     0.198300000000     0.0480119  
H271     H      0.339670000000     0.563790000000     0.218910000000     0.0433776  
H272     H      0.431040000000     0.614110000000     0.209280000000     0.183344   
H273     H      0.493930000000     0.896230000000     0.208390000000     0.0602448  
H274     H      0.452870000000     0.861000000000     0.230770000000     0.0463993  
H275     H      0.041070000000     0.897300000000     0.248680000000     0.0678739  
H276     H      0.459820000000     0.920820000000     0.217640000000     0.0428417  
H277     H      0.447770000000     0.887760000000     0.264490000000     0.0395825  
H278     H      0.995730000000     0.891770000000     0.304930000000     0.0547425  
H279     H      0.029850000000     0.866740000000     0.297540000000     0.0488599  
H280     H      0.051890000000     0.949090000000     0.331650000000     0.183464   
H281     H      0.053040000000     0.642560000000     0.255540000000     0.0408465  
H282     H      0.026430000000     0.619340000000     0.208880000000     0.0399977  
H283     H      0.015940000000     0.636890000000     0.302810000000     0.0630926  
H284     H      0.045870000000     0.674660000000     0.227080000000     0.0403845  
H285     H      0.495630000000     0.649710000000     0.210950000000     0.0379537  
H286     H      0.457730000000     0.647930000000     0.261130000000     0.0548964  
H287     H      0.463010000000     0.615350000000     0.289210000000     0.0496959  
H288     H      0.441020000000     0.691690000000     0.333510000000     0.183449   
H289     H      0.388770000000     0.719770000000     0.509520000000     0.042694   
H290     H      0.357640000000     0.745320000000     0.966680000000     0.0427553  
H291     H      0.388930000000     0.755900000000     0.560690000000     0.0612594  
H292     H      0.414190000000     0.732110000000     0.977150000000     0.0385016  
H293     H      0.382030000000     0.781280000000     0.968230000000     0.0462693  
H294     H      0.376880000000     0.817500000000     0.021820000000     0.0497177  
H295     H      0.353190000000     0.800860000000     0.553210000000     0.0439305  
H296     H      0.436770000000     0.842880000000     0.572910000000     0.179707   
H297     H      0.145850000000     0.805530000000     0.996190000000     0.045508   
H298     H      0.105640000000     0.802200000000     0.536630000000     0.0413732  
H299     H      0.143070000000     0.750610000000     0.961650000000     0.063827   
H300     H      0.165550000000     0.802950000000     0.533860000000     0.0387726  
H301     H      0.124790000000     0.768530000000     0.555560000000     0.0408667  
H302     H      0.125030000000     0.711530000000     0.521710000000     0.0492136  
H303     H      0.104210000000     0.712840000000     0.984300000000     0.0467076  
H304     H      0.194180000000     0.669760000000     0.993160000000     0.182764   
H305     H      0.189400000000     0.891090000000     0.502870000000     0.0402571  
H306     H      0.223870000000     0.864910000000     0.542150000000     0.0461427  
H307     H      0.215410000000     0.889840000000     0.948080000000     0.0629483  
H308     H      0.202800000000     0.921080000000     0.531300000000     0.0383655  
H309     H      0.254690000000     0.894250000000     0.535050000000     0.0632767  
H310     H      0.282160000000     0.891890000000     0.976110000000     0.0565599  
H311     H      0.266210000000     0.862320000000     0.949060000000     0.0488915  
H312     H      0.287460000000     0.939420000000     0.906770000000     0.186956   
H313     H      0.249590000000     0.628360000000     0.971030000000     0.0422359  
H314     H      0.290610000000     0.669350000000     0.966490000000     0.0432834  
H315     H      0.227090000000     0.629250000000     0.534190000000     0.066769   
H316     H      0.287030000000     0.608220000000     0.966590000000     0.0364828  
H317     H      0.314000000000     0.650090000000     0.996690000000     0.0421913  
H318     H      0.293360000000     0.652010000000     0.555470000000     0.0469986  
H319     H      0.255770000000     0.671310000000     0.562660000000     0.0454371  
H320     H      0.283330000000     0.577890000000     0.598620000000     0.181634   
H321     H      0.203780000000     0.521890000000     0.860930000000     0.0474918  
H322     H      0.211790000000     0.558300000000     0.904330000000     0.0437664  
H323     H      0.252500000000     0.977560000000     0.868090000000     0.0813188  
H324     H      0.215230000000     0.559460000000     0.842880000000     0.0408716  
H325     H      0.247190000000     0.574610000000     0.887200000000     0.0382104  
H326     H      0.296860000000     0.034830000000     0.883900000000     0.0483869  
H327     H      0.294170000000     0.997040000000     0.905370000000     0.0434672  
H328     H      0.338690000000     0.994380000000     0.822750000000     0.179192   
H329     H      0.194130000000     0.002390000000     0.617280000000     0.041675   
H330     H      0.208460000000     0.547710000000     0.652220000000     0.0428447  
H331     H      0.236660000000     0.958430000000     0.618950000000     0.0613596  
H332     H      0.201160000000     0.538420000000     0.593930000000     0.0539228  
H333     H      0.243860000000     0.555550000000     0.629730000000     0.0509484  
H334     H      0.289120000000     0.507340000000     0.633350000000     0.0486421  
H335     H      0.278140000000     0.972250000000     0.656180000000     0.0425211  
H336     H      0.324720000000     0.958110000000     0.575920000000     0.178598   
H337     H      0.050540000000     0.767980000000     0.879490000000     0.0453609  
H338     H      0.035010000000     0.723740000000     0.916080000000     0.0445223  
H339     H      0.009850000000     0.816650000000     0.879170000000     0.0648243  
H340     H      0.039320000000     0.731870000000     0.857840000000     0.0528597  
H341     H      0.496880000000     0.720500000000     0.896930000000     0.05688    
H342     H      0.457540000000     0.773800000000     0.906810000000     0.0467473  
H343     H      0.476660000000     0.808330000000     0.924050000000     0.0431605  
H344     H      0.452210000000     0.855110000000     0.832830000000     0.184439   
H345     H      0.460030000000     0.754590000000     0.643450000000     0.0583099  
H346     H      0.485170000000     0.711610000000     0.612130000000     0.0429669  
H347     H      0.495370000000     0.805790000000     0.638820000000     0.0692066  
H348     H      0.472630000000     0.722850000000     0.670200000000     0.0418649  
H349     H      0.019400000000     0.711600000000     0.637830000000     0.0378241  
H350     H      0.055320000000     0.764430000000     0.637000000000     0.0471292  
H351     H      0.045000000000     0.796270000000     0.609610000000     0.042723   
H352     H      0.076220000000     0.830550000000     0.687740000000     0.179978   
H353     H      0.136120000000     0.563240000000     0.746350000000     0.0411601  
H354     H      0.092420000000     0.555910000000     0.784540000000     0.0387404  
H355     H      0.151300000000     0.982130000000     0.713400000000     0.0590893  
H356     H      0.151410000000     0.554540000000     0.785360000000     0.0397369  
H357     H      0.107100000000     0.516840000000     0.796250000000     0.0619316  
H358     H      0.091130000000     0.980960000000     0.714200000000     0.0506826  
H359     H      0.108500000000     0.019170000000     0.704010000000     0.0359443  
H360     H      0.128060000000     0.911060000000     0.755150000000     0.188285   
H361     H      0.380700000000     0.013320000000     0.791360000000     0.0438288  
H362     H      0.344190000000     0.972460000000     0.768650000000     0.0466084  
H363     H      0.381300000000     0.567130000000     0.757460000000     0.0645873  
H364     H      0.402010000000     0.978870000000     0.775510000000     0.0389233  
H365     H      0.364430000000     0.974400000000     0.730920000000     0.0442433  
H366     H      0.358310000000     0.530810000000     0.698300000000     0.0480677  
H367     H      0.339670000000     0.563790000000     0.718910000000     0.043398   
H368     H      0.431040000000     0.614110000000     0.709280000000     0.183395   
H369     H      0.493930000000     0.896230000000     0.708390000000     0.0603037  
H370     H      0.452870000000     0.861000000000     0.730770000000     0.0464264  
H371     H      0.041070000000     0.897300000000     0.748680000000     0.0678705  
H372     H      0.459820000000     0.920820000000     0.717640000000     0.0428984  
H373     H      0.447770000000     0.887760000000     0.764490000000     0.0396374  
H374     H      0.995730000000     0.891770000000     0.804930000000     0.0548603  
H375     H      0.029850000000     0.866740000000     0.797540000000     0.0489485  
H376     H      0.051890000000     0.949090000000     0.831660000000     0.183694   
H377     H      0.053040000000     0.642560000000     0.755540000000     0.0408699  
H378     H      0.026430000000     0.619340000000     0.708880000000     0.0400976  
H379     H      0.015940000000     0.636890000000     0.802810000000     0.0632322  
H380     H      0.045870000000     0.674660000000     0.727080000000     0.0404025  
H381     H      0.495630000000     0.649710000000     0.710950000000     0.0380117  
H382     H      0.457730000000     0.647930000000     0.761130000000     0.0549066  
H383     H      0.463010000000     0.615350000000     0.789210000000     0.0498046  
H384     H      0.441020000000     0.691690000000     0.833510000000     0.183597   
H385     H      0.888770000000     0.219770000000     0.009520000000     0.0368987  
H386     H      0.857630000000     0.245320000000     0.466680000000     0.0420159  
H387     H      0.888930000000     0.255900000000     0.060690000000     0.0610349  
H388     H      0.914190000000     0.232110000000     0.477150000000     0.0391288  
H389     H      0.882030000000     0.281280000000     0.468240000000     0.0451931  
H390     H      0.876890000000     0.317500000000     0.521820000000     0.0507967  
H391     H      0.853190000000     0.300860000000     0.053210000000     0.0439016  
H392     H      0.936760000000     0.342880000000     0.072910000000     0.179336   
H393     H      0.645850000000     0.305530000000     0.496190000000     0.0396667  
H394     H      0.605640000000     0.302200000000     0.036630000000     0.0403036  
H395     H      0.643070000000     0.250610000000     0.461650000000     0.0650168  
H396     H      0.665550000000     0.302960000000     0.033860000000     0.0397407  
H397     H      0.624800000000     0.268530000000     0.055560000000     0.0406312  
H398     H      0.625030000000     0.211540000000     0.021710000000     0.0506038  
H399     H      0.604210000000     0.212840000000     0.484300000000     0.0400998  
H400     H      0.694180000000     0.169760000000     0.493160000000     0.181867   
H401     H      0.689410000000     0.391090000000     0.002870000000     0.038939   
H402     H      0.723870000000     0.364910000000     0.042150000000     0.0467313  
H403     H      0.715410000000     0.389840000000     0.448080000000     0.0621101  
H404     H      0.702800000000     0.421080000000     0.031300000000     0.0378792  
H405     H      0.754690000000     0.394250000000     0.035060000000     0.0629783  
H406     H      0.782160000000     0.391890000000     0.476110000000     0.0549978  
H407     H      0.766210000000     0.362320000000     0.449060000000     0.0483295  
H408     H      0.787460000000     0.439420000000     0.406770000000     0.18678    
H409     H      0.749590000000     0.128360000000     0.471030000000     0.0417625  
H410     H      0.790610000000     0.169350000000     0.466490000000     0.0433122  
H411     H      0.727090000000     0.129250000000     0.034190000000     0.0655939  
H412     H      0.787030000000     0.108220000000     0.466590000000     0.0360914  
H413     H      0.814000000000     0.150090000000     0.496690000000     0.0405622  
H414     H      0.793360000000     0.152010000000     0.055470000000     0.0464776  
H415     H      0.755770000000     0.171310000000     0.062660000000     0.0454098  
H416     H      0.783330000000     0.077890000000     0.098620000000     0.181613   
H417     H      0.703790000000     0.021890000000     0.360930000000     0.0473507  
H418     H      0.711790000000     0.058310000000     0.404320000000     0.043388   
H419     H      0.752500000000     0.477560000000     0.368090000000     0.0813339  
H420     H      0.715230000000     0.059460000000     0.342880000000     0.0408177  
H421     H      0.747190000000     0.074620000000     0.387200000000     0.0379913  
H422     H      0.796860000000     0.534830000000     0.383900000000     0.0479833  
H423     H      0.794170000000     0.497040000000     0.405370000000     0.0428764  
H424     H      0.838690000000     0.494380000000     0.322750000000     0.1789     
H425     H      0.694130000000     0.502390000000     0.117280000000     0.0413863  
H426     H      0.708460000000     0.047710000000     0.152220000000     0.0427485  
H427     H      0.736660000000     0.458430000000     0.118950000000     0.0612475  
H428     H      0.701160000000     0.038420000000     0.093930000000     0.0535248  
H429     H      0.743860000000     0.055550000000     0.129730000000     0.0509353  
H430     H      0.789120000000     0.007340000000     0.133350000000     0.0484181  
H431     H      0.778140000000     0.472240000000     0.156180000000     0.0425207  
H432     H      0.824720000000     0.458110000000     0.075920000000     0.178104   
H433     H      0.550540000000     0.267980000000     0.379490000000     0.0449986  
H434     H      0.535010000000     0.223740000000     0.416080000000     0.0441235  
H435     H      0.509850000000     0.316660000000     0.379170000000     0.0634622  
H436     H      0.539320000000     0.231870000000     0.357840000000     0.0525288  
H437     H      0.996880000000     0.220500000000     0.396930000000     0.055613   
H438     H      0.957540000000     0.273800000000     0.406820000000     0.0463028  
H439     H      0.976660000000     0.308330000000     0.424050000000     0.0421725  
H440     H      0.952210000000     0.355110000000     0.332830000000     0.184372   
H441     H      0.960030000000     0.254590000000     0.143450000000     0.0585652  
H442     H      0.985170000000     0.211610000000     0.112130000000     0.0416071  
H443     H      0.995370000000     0.305790000000     0.138820000000     0.0681868  
H444     H      0.972630000000     0.222850000000     0.170200000000     0.0420516  
H445     H      0.519400000000     0.211600000000     0.137830000000     0.0380061  
H446     H      0.555320000000     0.264430000000     0.137000000000     0.0470707  
H447     H      0.545000000000     0.296270000000     0.109610000000     0.042452   
H448     H      0.576220000000     0.330540000000     0.187740000000     0.180047   
H449     H      0.636120000000     0.063240000000     0.246350000000     0.0410995  
H450     H      0.592420000000     0.055910000000     0.284540000000     0.0385437  
H451     H      0.651300000000     0.482130000000     0.213400000000     0.0590035  
H452     H      0.651410000000     0.054540000000     0.285360000000     0.039673   
H453     H      0.607100000000     0.016840000000     0.296250000000     0.061718   
H454     H      0.591130000000     0.480950000000     0.214200000000     0.0503013  
H455     H      0.608500000000     0.519170000000     0.204010000000     0.035693   
H456     H      0.628060000000     0.411060000000     0.255150000000     0.188263   
H457     H      0.880700000000     0.513320000000     0.291360000000     0.0436555  
H458     H      0.844190000000     0.472460000000     0.268650000000     0.0466332  
H459     H      0.881300000000     0.067130000000     0.257460000000     0.0645472  
H460     H      0.902010000000     0.478870000000     0.275510000000     0.0386389  
H461     H      0.864430000000     0.474400000000     0.230920000000     0.0442388  
H462     H      0.858310000000     0.030810000000     0.198300000000     0.0479677  
H463     H      0.839670000000     0.063790000000     0.218910000000     0.0433725  
H464     H      0.931040000000     0.114110000000     0.209280000000     0.183342   
H465     H      0.993920000000     0.396230000000     0.208390000000     0.0599448  
H466     H      0.952870000000     0.360990000000     0.230770000000     0.0463373  
H467     H      0.541070000000     0.397300000000     0.248680000000     0.0677603  
H468     H      0.959820000000     0.420820000000     0.217640000000     0.0427881  
H469     H      0.947770000000     0.387760000000     0.264490000000     0.0395502  
H470     H      0.495730000000     0.391770000000     0.304930000000     0.0557269  
H471     H      0.529850000000     0.366740000000     0.297540000000     0.049075   
H472     H      0.551890000000     0.449090000000     0.331650000000     0.18332    
H473     H      0.553040000000     0.142560000000     0.255540000000     0.0406868  
H474     H      0.526440000000     0.119340000000     0.208880000000     0.0401665  
H475     H      0.515940000000     0.136890000000     0.302810000000     0.061966   
H476     H      0.545870000000     0.174660000000     0.227080000000     0.0402305  
H477     H      0.995630000000     0.149700000000     0.210950000000     0.0369041  
H478     H      0.957730000000     0.147930000000     0.261130000000     0.0547876  
H479     H      0.963010000000     0.115350000000     0.289210000000     0.0495604  
H480     H      0.941020000000     0.191690000000     0.333510000000     0.183526   
H481     H      0.888770000000     0.219770000000     0.509520000000     0.0426569  
H482     H      0.857630000000     0.245320000000     0.966680000000     0.0427394  
H483     H      0.888930000000     0.255900000000     0.560690000000     0.061257   
H484     H      0.914190000000     0.232110000000     0.977150000000     0.038413   
H485     H      0.882030000000     0.281280000000     0.968230000000     0.0462232  
H486     H      0.876890000000     0.317500000000     0.021820000000     0.049679   
H487     H      0.853190000000     0.300860000000     0.553210000000     0.043911   
H488     H      0.936760000000     0.342880000000     0.572910000000     0.179584   
H489     H      0.645850000000     0.305530000000     0.996190000000     0.04547    
H490     H      0.605640000000     0.302200000000     0.536630000000     0.041333   
H491     H      0.643070000000     0.250610000000     0.961650000000     0.0638271  
H492     H      0.665550000000     0.302960000000     0.533860000000     0.0387439  
H493     H      0.624800000000     0.268530000000     0.555560000000     0.0408593  
H494     H      0.625030000000     0.211540000000     0.521710000000     0.049193   
H495     H      0.604210000000     0.212840000000     0.984300000000     0.0466598  
H496     H      0.694180000000     0.169760000000     0.993160000000     0.182756   
H497     H      0.689410000000     0.391090000000     0.502870000000     0.0402373  
H498     H      0.723870000000     0.364910000000     0.542150000000     0.0461318  
H499     H      0.715410000000     0.389840000000     0.948080000000     0.0629339  
H500     H      0.702800000000     0.421080000000     0.531300000000     0.0383265  
H501     H      0.754690000000     0.394250000000     0.535050000000     0.0632634  
H502     H      0.782160000000     0.391890000000     0.976110000000     0.0565367  
H503     H      0.766210000000     0.362320000000     0.949060000000     0.0488849  
H504     H      0.787460000000     0.439420000000     0.906770000000     0.186941   
H505     H      0.749590000000     0.128360000000     0.971030000000     0.0422319  
H506     H      0.790610000000     0.169350000000     0.966490000000     0.0432675  
H507     H      0.727090000000     0.129250000000     0.534190000000     0.0667612  
H508     H      0.787030000000     0.108220000000     0.966590000000     0.0364699  
H509     H      0.814000000000     0.150090000000     0.996690000000     0.0421556  
H510     H      0.793360000000     0.152010000000     0.555470000000     0.0469831  
H511     H      0.755770000000     0.171310000000     0.562660000000     0.0454354  
H512     H      0.783330000000     0.077890000000     0.598620000000     0.181623   
H513     H      0.703790000000     0.021890000000     0.860930000000     0.0474565  
H514     H      0.711790000000     0.058310000000     0.904330000000     0.0437146  
H515     H      0.752500000000     0.477560000000     0.868090000000     0.0813424  
H516     H      0.715230000000     0.059460000000     0.842880000000     0.0408734  
H517     H      0.747190000000     0.074620000000     0.887200000000     0.0381851  
H518     H      0.796860000000     0.534830000000     0.883900000000     0.0483194  
H519     H      0.794170000000     0.497040000000     0.905370000000     0.0432677  
H520     H      0.838690000000     0.494380000000     0.822750000000     0.178988   
H521     H      0.694130000000     0.502390000000     0.617280000000     0.0416907  
H522     H      0.708460000000     0.047710000000     0.652220000000     0.0428259  
H523     H      0.736660000000     0.458430000000     0.618950000000     0.0613357  
H524     H      0.701160000000     0.038420000000     0.593930000000     0.0538957  
H525     H      0.743860000000     0.055550000000     0.629730000000     0.0509457  
H526     H      0.789120000000     0.007340000000     0.633350000000     0.0484789  
H527     H      0.778140000000     0.472240000000     0.656180000000     0.0425419  
H528     H      0.824720000000     0.458110000000     0.575920000000     0.178548   
H529     H      0.550540000000     0.267980000000     0.879490000000     0.0452666  
H530     H      0.535010000000     0.223740000000     0.916080000000     0.0446826  
H531     H      0.509850000000     0.316660000000     0.879170000000     0.0637505  
H532     H      0.539320000000     0.231870000000     0.857840000000     0.0526161  
H533     H      0.996880000000     0.220500000000     0.896930000000     0.0559205  
H534     H      0.957540000000     0.273800000000     0.906810000000     0.0466817  
H535     H      0.976660000000     0.308330000000     0.924050000000     0.042899   
H536     H      0.952210000000     0.355110000000     0.832830000000     0.184481   
H537     H      0.960030000000     0.254590000000     0.643450000000     0.0585811  
H538     H      0.985170000000     0.211610000000     0.612130000000     0.0417524  
H539     H      0.995370000000     0.305790000000     0.638820000000     0.0682285  
H540     H      0.972630000000     0.222850000000     0.670200000000     0.04208    
H541     H      0.519400000000     0.211600000000     0.637830000000     0.0381207  
H542     H      0.555320000000     0.264430000000     0.637000000000     0.0471091  
H543     H      0.545000000000     0.296270000000     0.609610000000     0.0425648  
H544     H      0.576220000000     0.330540000000     0.687740000000     0.180082   
H545     H      0.636120000000     0.063240000000     0.746350000000     0.0411348  
H546     H      0.592420000000     0.055910000000     0.784540000000     0.0386405  
H547     H      0.651300000000     0.482130000000     0.713400000000     0.0590515  
H548     H      0.651410000000     0.054540000000     0.785360000000     0.0397087  
H549     H      0.607100000000     0.016840000000     0.796250000000     0.0618275  
H550     H      0.591130000000     0.480950000000     0.714200000000     0.05039    
H551     H      0.608500000000     0.519170000000     0.704010000000     0.0358236  
H552     H      0.628060000000     0.411060000000     0.755150000000     0.188287   
H553     H      0.880700000000     0.513320000000     0.791360000000     0.0437749  
H554     H      0.844190000000     0.472460000000     0.768650000000     0.0466525  
H555     H      0.881300000000     0.067130000000     0.757460000000     0.0645838  
H556     H      0.902010000000     0.478870000000     0.775510000000     0.038727   
H557     H      0.864430000000     0.474400000000     0.730920000000     0.0442605  
H558     H      0.858310000000     0.030810000000     0.698300000000     0.0480229  
H559     H      0.839670000000     0.063790000000     0.718910000000     0.0433927  
H560     H      0.931040000000     0.114110000000     0.709280000000     0.183392   
H561     H      0.993920000000     0.396230000000     0.708390000000     0.0599977  
H562     H      0.952870000000     0.360990000000     0.730770000000     0.0463636  
H563     H      0.541070000000     0.397300000000     0.748680000000     0.0677553  
H564     H      0.959820000000     0.420820000000     0.717640000000     0.0428438  
H565     H      0.947770000000     0.387760000000     0.764490000000     0.0396046  
H566     H      0.495730000000     0.391770000000     0.804930000000     0.0558607  
H567     H      0.529850000000     0.366740000000     0.797540000000     0.0491669  
H568     H      0.551890000000     0.449090000000     0.831660000000     0.18355    
H569     H      0.553040000000     0.142560000000     0.755540000000     0.0407075  
H570     H      0.526440000000     0.119340000000     0.708880000000     0.0402697  
H571     H      0.515940000000     0.136890000000     0.802810000000     0.0620898  
H572     H      0.545870000000     0.174660000000     0.727080000000     0.0402458  
H573     H      0.995630000000     0.149700000000     0.710950000000     0.0369454  
H574     H      0.957730000000     0.147930000000     0.761130000000     0.0547955  
H575     H      0.963010000000     0.115350000000     0.789210000000     0.0496661  
H576     H      0.941020000000     0.191690000000     0.833510000000     0.183674   
H577     H      0.888770000000     0.719770000000     0.009520000000     0.0368994  
H578     H      0.857630000000     0.745320000000     0.466680000000     0.0420166  
H579     H      0.888930000000     0.755900000000     0.060690000000     0.0610192  
H580     H      0.914190000000     0.732110000000     0.477150000000     0.0391298  
H581     H      0.882030000000     0.781280000000     0.468240000000     0.0451953  
H582     H      0.876890000000     0.817500000000     0.521820000000     0.0508121  
H583     H      0.853190000000     0.800860000000     0.053210000000     0.0439127  
H584     H      0.936760000000     0.842880000000     0.072910000000     0.179422   
H585     H      0.645850000000     0.805530000000     0.496190000000     0.0396765  
H586     H      0.605640000000     0.802200000000     0.036630000000     0.0403043  
H587     H      0.643070000000     0.750610000000     0.461650000000     0.0650086  
H588     H      0.665550000000     0.802950000000     0.033860000000     0.0397609  
H589     H      0.624800000000     0.768530000000     0.055560000000     0.0406283  
H590     H      0.625030000000     0.711530000000     0.021710000000     0.0505911  
H591     H      0.604210000000     0.712840000000     0.484300000000     0.0400943  
H592     H      0.694180000000     0.669760000000     0.493160000000     0.181866   
H593     H      0.689410000000     0.891090000000     0.002870000000     0.0389476  
H594     H      0.723870000000     0.864910000000     0.042150000000     0.0467341  
H595     H      0.715410000000     0.889840000000     0.448080000000     0.0621127  
H596     H      0.702800000000     0.921080000000     0.031300000000     0.0379037  
H597     H      0.754690000000     0.894250000000     0.035060000000     0.0629873  
H598     H      0.782160000000     0.891890000000     0.476110000000     0.0550063  
H599     H      0.766210000000     0.862320000000     0.449060000000     0.0483309  
H600     H      0.787460000000     0.939420000000     0.406770000000     0.186788   
H601     H      0.749590000000     0.628360000000     0.471030000000     0.0417629  
H602     H      0.790610000000     0.669350000000     0.466490000000     0.0433125  
H603     H      0.727090000000     0.629250000000     0.034190000000     0.0655943  
H604     H      0.787030000000     0.608220000000     0.466590000000     0.036094   
H605     H      0.814000000000     0.650090000000     0.496690000000     0.0405655  
H606     H      0.793360000000     0.652010000000     0.055470000000     0.0464789  
H607     H      0.755770000000     0.671310000000     0.062660000000     0.0454087  
H608     H      0.783330000000     0.577890000000     0.098620000000     0.181621   
H609     H      0.703790000000     0.521890000000     0.360930000000     0.0473874  
H610     H      0.711790000000     0.558300000000     0.404320000000     0.043415   
H611     H      0.752500000000     0.977560000000     0.368090000000     0.0813137  
H612     H      0.715230000000     0.559460000000     0.342880000000     0.0408168  
H613     H      0.747190000000     0.574610000000     0.387200000000     0.0380092  
H614     H      0.796860000000     0.034830000000     0.383900000000     0.048037   
H615     H      0.794170000000     0.997040000000     0.405370000000     0.0430614  
H616     H      0.838690000000     0.994380000000     0.322750000000     0.179087   
H617     H      0.694130000000     0.002390000000     0.117280000000     0.0413412  
H618     H      0.708460000000     0.547710000000     0.152220000000     0.0427533  
H619     H      0.736660000000     0.958430000000     0.118950000000     0.0612676  
H620     H      0.701160000000     0.538420000000     0.093930000000     0.0535307  
H621     H      0.743860000000     0.555550000000     0.129730000000     0.0509375  
H622     H      0.789120000000     0.507340000000     0.133350000000     0.0485739  
H623     H      0.778140000000     0.972250000000     0.156180000000     0.0424957  
H624     H      0.824720000000     0.958110000000     0.075920000000     0.178127   
H625     H      0.550540000000     0.767980000000     0.379490000000     0.0449973  
H626     H      0.535010000000     0.723740000000     0.416080000000     0.0441248  
H627     H      0.509850000000     0.816650000000     0.379170000000     0.0634903  
H628     H      0.539320000000     0.731870000000     0.357840000000     0.0525281  
H629     H      0.996880000000     0.720500000000     0.396930000000     0.0556155  
H630     H      0.957540000000     0.773800000000     0.406820000000     0.0463014  
H631     H      0.976660000000     0.808330000000     0.424050000000     0.0421737  
H632     H      0.952210000000     0.855110000000     0.332830000000     0.184377   
H633     H      0.960030000000     0.754590000000     0.143450000000     0.0585655  
H634     H      0.985170000000     0.711610000000     0.112130000000     0.04161    
H635     H      0.995370000000     0.805790000000     0.138820000000     0.0681825  
H636     H      0.972630000000     0.722850000000     0.170200000000     0.04205    
H637     H      0.519400000000     0.711600000000     0.137830000000     0.0380037  
H638     H      0.555320000000     0.764430000000     0.137000000000     0.0470667  
H639     H      0.545000000000     0.796270000000     0.109610000000     0.0424542  
H640     H      0.576220000000     0.830550000000     0.187740000000     0.179931   
H641     H      0.636120000000     0.563240000000     0.246350000000     0.0411031  
H642     H      0.592420000000     0.555910000000     0.284540000000     0.0385416  
H643     H      0.651300000000     0.982130000000     0.213400000000     0.0590216  
H644     H      0.651410000000     0.554540000000     0.285360000000     0.0396854  
H645     H      0.607100000000     0.516840000000     0.296250000000     0.0617591  
H646     H      0.591130000000     0.980960000000     0.214200000000     0.0504776  
H647     H      0.608500000000     0.019170000000     0.204010000000     0.0357359  
H648     H      0.628060000000     0.911060000000     0.255150000000     0.188262   
H649     H      0.880700000000     0.013320000000     0.291360000000     0.0436909  
H650     H      0.844190000000     0.972460000000     0.268650000000     0.0465838  
H651     H      0.881300000000     0.567130000000     0.257460000000     0.0645421  
H652     H      0.902010000000     0.978870000000     0.275510000000     0.0388163  
H653     H      0.864430000000     0.974400000000     0.230920000000     0.044211   
H654     H      0.858310000000     0.530810000000     0.198300000000     0.048      
H655     H      0.839670000000     0.563790000000     0.218910000000     0.0433739  
H656     H      0.931040000000     0.614110000000     0.209280000000     0.183342   
H657     H      0.993920000000     0.896230000000     0.208390000000     0.0599508  
H658     H      0.952870000000     0.861000000000     0.230770000000     0.0463456  
H659     H      0.541070000000     0.897300000000     0.248680000000     0.0677606  
H660     H      0.959820000000     0.920820000000     0.217640000000     0.0428011  
H661     H      0.947770000000     0.887760000000     0.264490000000     0.0395613  
H662     H      0.495730000000     0.891770000000     0.304930000000     0.0557344  
H663     H      0.529850000000     0.866740000000     0.297540000000     0.049073   
H664     H      0.551890000000     0.949090000000     0.331650000000     0.183349   
H665     H      0.553040000000     0.642560000000     0.255540000000     0.0406843  
H666     H      0.526440000000     0.619340000000     0.208880000000     0.0401633  
H667     H      0.515940000000     0.636890000000     0.302810000000     0.0619715  
H668     H      0.545870000000     0.674660000000     0.227080000000     0.0402187  
H669     H      0.995630000000     0.649710000000     0.210950000000     0.0368912  
H670     H      0.957730000000     0.647930000000     0.261130000000     0.054779   
H671     H      0.963010000000     0.615350000000     0.289210000000     0.049573   
H672     H      0.941020000000     0.691690000000     0.333510000000     0.183446   
H673     H      0.888770000000     0.719770000000     0.509520000000     0.0426578  
H674     H      0.857630000000     0.745320000000     0.966680000000     0.0427402  
H675     H      0.888930000000     0.755900000000     0.560690000000     0.0612414  
H676     H      0.914190000000     0.732110000000     0.977150000000     0.038414   
H677     H      0.882030000000     0.781280000000     0.968230000000     0.0462253  
H678     H      0.876890000000     0.817500000000     0.021820000000     0.0496943  
H679     H      0.853190000000     0.800860000000     0.553210000000     0.0439222  
H680     H      0.936760000000     0.842880000000     0.572910000000     0.17967    
H681     H      0.645850000000     0.805530000000     0.996190000000     0.0454802  
H682     H      0.605640000000     0.802200000000     0.536630000000     0.041334   
H683     H      0.643070000000     0.750610000000     0.961650000000     0.0638191  
H684     H      0.665550000000     0.802950000000     0.533860000000     0.0387627  
H685     H      0.624800000000     0.768530000000     0.555560000000     0.0408566  
H686     H      0.625030000000     0.711530000000     0.521710000000     0.0491827  
H687     H      0.604210000000     0.712840000000     0.984300000000     0.0466539  
H688     H      0.694180000000     0.669760000000     0.993160000000     0.182755   
H689     H      0.689410000000     0.891090000000     0.502870000000     0.0402459  
H690     H      0.723870000000     0.864910000000     0.542150000000     0.0461347  
H691     H      0.715410000000     0.889840000000     0.948080000000     0.0629365  
H692     H      0.702800000000     0.921080000000     0.531300000000     0.0383511  
H693     H      0.754690000000     0.894250000000     0.535050000000     0.0632724  
H694     H      0.782160000000     0.891890000000     0.976110000000     0.0565452  
H695     H      0.766210000000     0.862320000000     0.949060000000     0.0488863  
H696     H      0.787460000000     0.939420000000     0.906770000000     0.186949   
H697     H      0.749590000000     0.628360000000     0.971030000000     0.0422323  
H698     H      0.790610000000     0.669350000000     0.966490000000     0.0432678  
H699     H      0.727090000000     0.629250000000     0.534190000000     0.0667617  
H700     H      0.787030000000     0.608220000000     0.966590000000     0.0364725  
H701     H      0.814000000000     0.650090000000     0.996690000000     0.042159   
H702     H      0.793360000000     0.652010000000     0.555470000000     0.0469845  
H703     H      0.755770000000     0.671310000000     0.562660000000     0.0454343  
H704     H      0.783330000000     0.577890000000     0.598620000000     0.181631   
H705     H      0.703790000000     0.521890000000     0.860930000000     0.0474932  
H706     H      0.711790000000     0.558300000000     0.904330000000     0.0437417  
H707     H      0.752500000000     0.977560000000     0.868090000000     0.0813223  
H708     H      0.715230000000     0.559460000000     0.842880000000     0.0408724  
H709     H      0.747190000000     0.574610000000     0.887200000000     0.038203   
H710     H      0.796860000000     0.034830000000     0.883900000000     0.048373   
H711     H      0.794170000000     0.997040000000     0.905370000000     0.0434524  
H712     H      0.838690000000     0.994380000000     0.822750000000     0.179176   
H713     H      0.694130000000     0.002390000000     0.617280000000     0.0416454  
H714     H      0.708460000000     0.547710000000     0.652220000000     0.0428307  
H715     H      0.736660000000     0.958430000000     0.618950000000     0.0613559  
H716     H      0.701160000000     0.538420000000     0.593930000000     0.0539016  
H717     H      0.743860000000     0.555550000000     0.629730000000     0.0509479  
H718     H      0.789120000000     0.507340000000     0.633350000000     0.0486353  
H719     H      0.778140000000     0.972250000000     0.656180000000     0.0425168  
H720     H      0.824720000000     0.958110000000     0.575920000000     0.178571   
H721     H      0.550540000000     0.767980000000     0.879490000000     0.0452653  
H722     H      0.535010000000     0.723740000000     0.916080000000     0.0446838  
H723     H      0.509850000000     0.816650000000     0.879170000000     0.0637785  
H724     H      0.539320000000     0.731870000000     0.857840000000     0.0526153  
H725     H      0.996880000000     0.720500000000     0.896930000000     0.055923   
H726     H      0.957540000000     0.773800000000     0.906810000000     0.0466803  
H727     H      0.976660000000     0.808330000000     0.924050000000     0.0429003  
H728     H      0.952210000000     0.855110000000     0.832830000000     0.184485   
H729     H      0.960030000000     0.754590000000     0.643450000000     0.0585814  
H730     H      0.985170000000     0.711610000000     0.612130000000     0.0417553  
H731     H      0.995370000000     0.805790000000     0.638820000000     0.0682242  
H732     H      0.972630000000     0.722850000000     0.670200000000     0.0420784  
H733     H      0.519400000000     0.711600000000     0.637830000000     0.0381182  
H734     H      0.555320000000     0.764430000000     0.637000000000     0.0471051  
H735     H      0.545000000000     0.796270000000     0.609610000000     0.042567   
H736     H      0.576220000000     0.830550000000     0.687740000000     0.179967   
H737     H      0.636120000000     0.563240000000     0.746350000000     0.0411385  
H738     H      0.592420000000     0.555910000000     0.784540000000     0.0386383  
H739     H      0.651300000000     0.982130000000     0.713400000000     0.0590696  
H740     H      0.651410000000     0.554540000000     0.785360000000     0.0397211  
H741     H      0.607100000000     0.516840000000     0.796250000000     0.0618686  
H742     H      0.591130000000     0.980960000000     0.714200000000     0.0505666  
H743     H      0.608500000000     0.019170000000     0.704010000000     0.0358665  
H744     H      0.628060000000     0.911060000000     0.755150000000     0.188285   
H745     H      0.880700000000     0.013320000000     0.791360000000     0.0438103  
H746     H      0.844190000000     0.972460000000     0.768650000000     0.0466031  
H747     H      0.881300000000     0.567130000000     0.757460000000     0.0645787  
H748     H      0.902010000000     0.978870000000     0.775510000000     0.0389045  
H749     H      0.864430000000     0.974400000000     0.730920000000     0.0442327  
H750     H      0.858310000000     0.530810000000     0.698300000000     0.0480552  
H751     H      0.839670000000     0.563790000000     0.718910000000     0.0433941  
H752     H      0.931040000000     0.614110000000     0.709280000000     0.183392   
H753     H      0.993920000000     0.896230000000     0.708390000000     0.0600037  
H754     H      0.952870000000     0.861000000000     0.730770000000     0.0463719  
H755     H      0.541070000000     0.897300000000     0.748680000000     0.0677557  
H756     H      0.959820000000     0.920820000000     0.717640000000     0.0428568  
H757     H      0.947770000000     0.887760000000     0.764490000000     0.0396157  
H758     H      0.495730000000     0.891770000000     0.804930000000     0.0558681  
H759     H      0.529850000000     0.866740000000     0.797540000000     0.0491648  
H760     H      0.551890000000     0.949090000000     0.831660000000     0.183578   
H761     H      0.553040000000     0.642560000000     0.755540000000     0.040705   
H762     H      0.526440000000     0.619340000000     0.708880000000     0.0402665  
H763     H      0.515940000000     0.636890000000     0.802810000000     0.0620954  
H764     H      0.545870000000     0.674660000000     0.727080000000     0.0402341  
H765     H      0.995630000000     0.649710000000     0.710950000000     0.0369324  
H766     H      0.957730000000     0.647930000000     0.761130000000     0.054787   
H767     H      0.963010000000     0.615350000000     0.789210000000     0.0496787  
H768     H      0.941020000000     0.691690000000     0.833510000000     0.183593   
N1       N      0.416900000000     0.261150000000     0.519610000000    -0.165363   
N2       N      0.352440000000     0.275220000000     0.008490000000    -0.180437   
N3       N      0.168040000000     0.260340000000     0.004170000000    -0.166128   
N4       N      0.101790000000     0.255970000000     0.512770000000    -0.179078   
N5       N      0.223930000000     0.423430000000     0.484870000000    -0.166466   
N6       N      0.248280000000     0.361190000000     0.497150000000    -0.178733   
N7       N      0.266160000000     0.105520000000     0.512920000000    -0.163404   
N8       N      0.273480000000     0.173760000000     0.514810000000    -0.179968   
N9       N      0.249820000000     0.521130000000     0.341610000000    -0.163482   
N10      N      0.253590000000     0.528580000000     0.408100000000    -0.179386   
N11      N      0.237170000000     0.001140000000     0.091330000000    -0.165779   
N12      N      0.245500000000     0.512400000000     0.156720000000    -0.182901   
N13      N      0.005980000000     0.271260000000     0.356620000000    -0.16332    
N14      N      0.003290000000     0.263850000000     0.423280000000    -0.180127   
N15      N      0.000050000000     0.267010000000     0.171280000000    -0.164392   
N16      N      0.016090000000     0.252990000000     0.108120000000    -0.180553   
N17      N      0.155340000000     0.015970000000     0.251380000000    -0.168132   
N18      N      0.087820000000     0.518250000000     0.249720000000    -0.177377   
N19      N      0.404400000000     0.522880000000     0.248130000000    -0.167596   
N20      N      0.338770000000     0.017090000000     0.242200000000    -0.180951   
N21      N      0.499830000000     0.426180000000     0.248910000000    -0.166239   
N22      N      0.490670000000     0.361290000000     0.265060000000    -0.179667   
N23      N      0.515940000000     0.174520000000     0.268700000000    -0.16783    
N24      N      0.493650000000     0.114870000000     0.248010000000    -0.181561   
N25      N      0.416900000000     0.261150000000     0.019610000000    -0.168613   
N26      N      0.352440000000     0.275220000000     0.508490000000    -0.179081   
N27      N      0.168040000000     0.260340000000     0.504170000000    -0.164434   
N28      N      0.101790000000     0.255970000000     0.012770000000    -0.178376   
N29      N      0.223930000000     0.423430000000     0.984870000000    -0.163872   
N30      N      0.248280000000     0.361190000000     0.997150000000    -0.172098   
N31      N      0.266160000000     0.105520000000     0.012920000000    -0.16608    
N32      N      0.273480000000     0.173760000000     0.014810000000    -0.181669   
N33      N      0.249820000000     0.521130000000     0.841610000000    -0.16348    
N34      N      0.253590000000     0.528580000000     0.908100000000    -0.179187   
N35      N      0.237170000000     0.001140000000     0.591330000000    -0.165612   
N36      N      0.245500000000     0.512400000000     0.656720000000    -0.182901   
N37      N      0.005980000000     0.271260000000     0.856620000000    -0.163309   
N38      N      0.003290000000     0.263850000000     0.923280000000    -0.179665   
N39      N      0.000050000000     0.267010000000     0.671280000000    -0.164394   
N40      N      0.016090000000     0.252990000000     0.608130000000    -0.180523   
N41      N      0.155340000000     0.015970000000     0.751380000000    -0.168136   
N42      N      0.087820000000     0.518250000000     0.749720000000    -0.17734    
N43      N      0.404400000000     0.522880000000     0.748130000000    -0.167563   
N44      N      0.338770000000     0.017090000000     0.742200000000    -0.180949   
N45      N      0.499830000000     0.426180000000     0.748910000000    -0.166224   
N46      N      0.490670000000     0.361290000000     0.765060000000    -0.179645   
N47      N      0.515940000000     0.174520000000     0.768690000000    -0.167848   
N48      N      0.493650000000     0.114870000000     0.748010000000    -0.181531   
N49      N      0.416900000000     0.761150000000     0.519610000000    -0.165376   
N50      N      0.352440000000     0.775220000000     0.008490000000    -0.180431   
N51      N      0.168040000000     0.760340000000     0.004170000000    -0.166126   
N52      N      0.101790000000     0.755970000000     0.512770000000    -0.179081   
N53      N      0.223930000000     0.923430000000     0.484870000000    -0.166453   
N54      N      0.248280000000     0.861190000000     0.497150000000    -0.178732   
N55      N      0.266160000000     0.605520000000     0.512920000000    -0.163405   
N56      N      0.273480000000     0.673760000000     0.514810000000    -0.179968   
N57      N      0.249820000000     0.021130000000     0.341610000000    -0.163537   
N58      N      0.253590000000     0.028580000000     0.408100000000    -0.179361   
N59      N      0.237170000000     0.501140000000     0.091330000000    -0.165728   
N60      N      0.245500000000     0.012400000000     0.156720000000    -0.182965   
N61      N      0.005980000000     0.771260000000     0.356620000000    -0.16332    
N62      N      0.003290000000     0.763850000000     0.423280000000    -0.180128   
N63      N      0.000050000000     0.767010000000     0.171280000000    -0.164383   
N64      N      0.016090000000     0.752990000000     0.108120000000    -0.180553   
N65      N      0.155340000000     0.515970000000     0.251380000000    -0.168019   
N66      N      0.087820000000     0.018250000000     0.249720000000    -0.17735    
N67      N      0.404400000000     0.022880000000     0.248130000000    -0.167565   
N68      N      0.338770000000     0.517090000000     0.242200000000    -0.18088    
N69      N      0.499830000000     0.926180000000     0.248910000000    -0.166239   
N70      N      0.490670000000     0.861290000000     0.265060000000    -0.179594   
N71      N      0.515940000000     0.674520000000     0.268700000000    -0.167919   
N72      N      0.493650000000     0.614870000000     0.248010000000    -0.181574   
N73      N      0.416900000000     0.761150000000     0.019610000000    -0.168626   
N74      N      0.352440000000     0.775220000000     0.508490000000    -0.179076   
N75      N      0.168040000000     0.760340000000     0.504170000000    -0.164432   
N76      N      0.101790000000     0.755970000000     0.012770000000    -0.17838    
N77      N      0.223930000000     0.923430000000     0.984870000000    -0.16386    
N78      N      0.248280000000     0.861190000000     0.997150000000    -0.172097   
N79      N      0.266160000000     0.605520000000     0.012920000000    -0.166082   
N80      N      0.273480000000     0.673760000000     0.014810000000    -0.181669   
N81      N      0.249820000000     0.021130000000     0.841610000000    -0.163535   
N82      N      0.253590000000     0.028580000000     0.908100000000    -0.179163   
N83      N      0.237170000000     0.501140000000     0.591330000000    -0.16556    
N84      N      0.245500000000     0.012400000000     0.656720000000    -0.182966   
N85      N      0.005980000000     0.771260000000     0.856620000000    -0.163309   
N86      N      0.003290000000     0.763850000000     0.923280000000    -0.179667   
N87      N      0.000050000000     0.767010000000     0.671280000000    -0.164385   
N88      N      0.016090000000     0.752990000000     0.608130000000    -0.180522   
N89      N      0.155340000000     0.515970000000     0.751380000000    -0.168022   
N90      N      0.087820000000     0.018250000000     0.749720000000    -0.177313   
N91      N      0.404400000000     0.022880000000     0.748130000000    -0.167532   
N92      N      0.338770000000     0.517090000000     0.742200000000    -0.180878   
N93      N      0.499830000000     0.926180000000     0.748910000000    -0.166224   
N94      N      0.490670000000     0.861290000000     0.765060000000    -0.179572   
N95      N      0.515940000000     0.674520000000     0.768690000000    -0.167936   
N96      N      0.493650000000     0.614870000000     0.748010000000    -0.181544   
N97      N      0.916900000000     0.261150000000     0.519610000000    -0.165424   
N98      N      0.852430000000     0.275220000000     0.008490000000    -0.180524   
N99      N      0.668040000000     0.260340000000     0.004170000000    -0.166126   
N100     N      0.601790000000     0.255970000000     0.512770000000    -0.179072   
N101     N      0.723930000000     0.423430000000     0.484870000000    -0.166468   
N102     N      0.748280000000     0.361190000000     0.497150000000    -0.178736   
N103     N      0.766160000000     0.105520000000     0.512920000000    -0.163387   
N104     N      0.773480000000     0.173760000000     0.514810000000    -0.179973   
N105     N      0.749820000000     0.521130000000     0.341610000000    -0.163476   
N106     N      0.753590000000     0.528580000000     0.408100000000    -0.179391   
N107     N      0.737170000000     0.001140000000     0.091330000000    -0.165725   
N108     N      0.745500000000     0.512400000000     0.156720000000    -0.182903   
N109     N      0.505980000000     0.271260000000     0.356620000000    -0.163845   
N110     N      0.503290000000     0.263850000000     0.423280000000    -0.180415   
N111     N      0.500050000000     0.267010000000     0.171280000000    -0.164739   
N112     N      0.516090000000     0.252990000000     0.108120000000    -0.18041    
N113     N      0.655340000000     0.015970000000     0.251380000000    -0.16813    
N114     N      0.587820000000     0.518250000000     0.249720000000    -0.177542   
N115     N      0.904400000000     0.522880000000     0.248130000000    -0.167581   
N116     N      0.838770000000     0.017090000000     0.242200000000    -0.180952   
N117     N      0.999830000000     0.426180000000     0.248910000000    -0.166625   
N118     N      0.990670000000     0.361290000000     0.265060000000    -0.180095   
N119     N      0.015940000000     0.174520000000     0.268700000000    -0.167319   
N120     N      0.993650000000     0.114870000000     0.248010000000    -0.182016   
N121     N      0.916900000000     0.261150000000     0.019610000000    -0.168655   
N122     N      0.852430000000     0.275220000000     0.508490000000    -0.179177   
N123     N      0.668040000000     0.260340000000     0.504170000000    -0.164433   
N124     N      0.601790000000     0.255970000000     0.012770000000    -0.178371   
N125     N      0.723930000000     0.423430000000     0.984870000000    -0.16388    
N126     N      0.748280000000     0.361190000000     0.997150000000    -0.172118   
N127     N      0.766160000000     0.105520000000     0.012920000000    -0.166057   
N128     N      0.773480000000     0.173760000000     0.014810000000    -0.181669   
N129     N      0.749820000000     0.521130000000     0.841610000000    -0.163475   
N130     N      0.753590000000     0.528580000000     0.908100000000    -0.179193   
N131     N      0.737170000000     0.001140000000     0.591330000000    -0.165557   
N132     N      0.745500000000     0.512400000000     0.656720000000    -0.182903   
N133     N      0.505980000000     0.271260000000     0.856620000000    -0.163842   
N134     N      0.503290000000     0.263850000000     0.923280000000    -0.179957   
N135     N      0.500050000000     0.267010000000     0.671280000000    -0.164745   
N136     N      0.516090000000     0.252990000000     0.608130000000    -0.180378   
N137     N      0.655340000000     0.015970000000     0.751380000000    -0.168134   
N138     N      0.587820000000     0.518250000000     0.749720000000    -0.177506   
N139     N      0.904400000000     0.522880000000     0.748130000000    -0.167548   
N140     N      0.838770000000     0.017090000000     0.742200000000    -0.180949   
N141     N      0.999830000000     0.426180000000     0.748910000000    -0.166616   
N142     N      0.990670000000     0.361290000000     0.765060000000    -0.180079   
N143     N      0.015940000000     0.174520000000     0.768690000000    -0.167329   
N144     N      0.993650000000     0.114870000000     0.748010000000    -0.181994   
N145     N      0.916900000000     0.761150000000     0.519610000000    -0.165437   
N146     N      0.852430000000     0.775220000000     0.008490000000    -0.180519   
N147     N      0.668040000000     0.760340000000     0.004170000000    -0.166124   
N148     N      0.601790000000     0.755970000000     0.512770000000    -0.179075   
N149     N      0.723930000000     0.923430000000     0.484870000000    -0.166456   
N150     N      0.748280000000     0.861190000000     0.497150000000    -0.178735   
N151     N      0.766160000000     0.605520000000     0.512920000000    -0.163389   
N152     N      0.773480000000     0.673760000000     0.514810000000    -0.179973   
N153     N      0.749820000000     0.021130000000     0.341610000000    -0.163531   
N154     N      0.753590000000     0.028580000000     0.408100000000    -0.179366   
N155     N      0.737170000000     0.501140000000     0.091330000000    -0.165673   
N156     N      0.745500000000     0.012400000000     0.156720000000    -0.182967   
N157     N      0.505980000000     0.771260000000     0.356620000000    -0.163845   
N158     N      0.503290000000     0.763850000000     0.423280000000    -0.180417   
N159     N      0.500050000000     0.767010000000     0.171280000000    -0.164729   
N160     N      0.516090000000     0.752990000000     0.108120000000    -0.18041    
N161     N      0.655340000000     0.515970000000     0.251380000000    -0.168016   
N162     N      0.587820000000     0.018250000000     0.249720000000    -0.177515   
N163     N      0.904400000000     0.022880000000     0.248130000000    -0.167551   
N164     N      0.838770000000     0.517090000000     0.242200000000    -0.180881   
N165     N      0.999830000000     0.926180000000     0.248910000000    -0.166624   
N166     N      0.990670000000     0.861290000000     0.265060000000    -0.180022   
N167     N      0.015940000000     0.674520000000     0.268700000000    -0.167408   
N168     N      0.993650000000     0.614870000000     0.248010000000    -0.182028   
N169     N      0.916900000000     0.761150000000     0.019610000000    -0.168668   
N170     N      0.852430000000     0.775220000000     0.508490000000    -0.179171   
N171     N      0.668040000000     0.760340000000     0.504170000000    -0.164431   
N172     N      0.601790000000     0.755970000000     0.012770000000    -0.178375   
N173     N      0.723930000000     0.923430000000     0.984870000000    -0.163868   
N174     N      0.748280000000     0.861190000000     0.997150000000    -0.172117   
N175     N      0.766160000000     0.605520000000     0.012920000000    -0.166058   
N176     N      0.773480000000     0.673760000000     0.014810000000    -0.181669   
N177     N      0.749820000000     0.021130000000     0.841610000000    -0.16353    
N178     N      0.753590000000     0.028580000000     0.908100000000    -0.179168   
N179     N      0.737170000000     0.501140000000     0.591330000000    -0.165506   
N180     N      0.745500000000     0.012400000000     0.656720000000    -0.182968   
N181     N      0.505980000000     0.771260000000     0.856620000000    -0.163842   
N182     N      0.503290000000     0.763850000000     0.923280000000    -0.179959   
N183     N      0.500050000000     0.767010000000     0.671280000000    -0.164735   
N184     N      0.516090000000     0.752990000000     0.608130000000    -0.180377   
N185     N      0.655340000000     0.515970000000     0.751380000000    -0.16802    
N186     N      0.587820000000     0.018250000000     0.749720000000    -0.177479   
N187     N      0.904400000000     0.022880000000     0.748130000000    -0.167518   
N188     N      0.838770000000     0.517090000000     0.742200000000    -0.180878   
N189     N      0.999830000000     0.926180000000     0.748910000000    -0.166616   
N190     N      0.990670000000     0.861290000000     0.765060000000    -0.180006   
N191     N      0.015940000000     0.674520000000     0.768690000000    -0.167418   
N192     N      0.993650000000     0.614870000000     0.748010000000    -0.182006   
O1       O      0.000090000000     0.066410000000     0.221880000000    -0.548927   
O2       O      0.492470000000     0.474220000000     0.222410000000    -0.548743   
O3       O      0.451630000000     0.024630000000     0.221710000000    -0.541628   
O4       O      0.040950000000     0.516060000000     0.222590000000    -0.554595   
O5       O      0.040440000000     0.024300000000     0.275200000000    -0.556055   
O6       O      0.451200000000     0.516970000000     0.274400000000    -0.560671   
O7       O      0.999650000000     0.474870000000     0.275110000000    -0.549042   
O8       O      0.491810000000     0.066420000000     0.274420000000    -0.562183   
O9       O      0.476400000000     0.258970000000     0.219790000000    -0.548448   
O10      O      0.477970000000     0.269860000000     0.309810000000    -0.532693   
O11      O      0.470950000000     0.309800000000     0.259750000000    -0.548903   
O12      O      0.483430000000     0.219010000000     0.270140000000    -0.542769   
O13      O      0.034980000000     0.225720000000     0.260290000000    -0.554844   
O14      O      0.022960000000     0.316830000000     0.266480000000    -0.55288    
O15      O      0.030800000000     0.268530000000     0.308290000000    -0.551835   
O16      O      0.027090000000     0.274170000000     0.218140000000    -0.54226    
O17      O      0.292350000000     0.490300000000     0.250790000000    -0.558691   
O18      O      0.202800000000     0.489180000000     0.249370000000    -0.551713   
O19      O      0.248790000000     0.487620000000     0.205220000000    -0.559286   
O20      O      0.247830000000     0.491760000000     0.295410000000    -0.544513   
O21      O      0.249320000000     0.046110000000     0.293030000000    -0.550188   
O22      O      0.242400000000     0.041540000000     0.202960000000    -0.555458   
O23      O      0.202020000000     0.043500000000     0.251970000000    -0.562658   
O24      O      0.291260000000     0.044130000000     0.243720000000    -0.554284   
O25      O      0.266760000000     0.500490000000     0.045180000000    -0.535696   
O26      O      0.274470000000     0.014220000000     0.456230000000    -0.55732    
O27      O      0.281030000000     0.052300000000     0.007640000000    -0.540294   
O28      O      0.260660000000     0.463390000000     0.492570000000    -0.541997   
O29      O      0.209240000000     0.476460000000     0.991740000000    -0.546003   
O30      O      0.229620000000     0.065380000000     0.505990000000    -0.551854   
O31      O      0.223450000000     0.528240000000     0.453760000000    -0.547846   
O32      O      0.215910000000     0.014870000000     0.043030000000    -0.558708   
O33      O      0.508620000000     0.228760000000     0.059330000000    -0.546914   
O34      O      0.008580000000     0.234170000000     0.468910000000    -0.553465   
O35      O      0.053630000000     0.230000000000     0.012920000000    -0.548325   
O36      O      0.463440000000     0.232990000000     0.513840000000    -0.547148   
O37      O      0.465230000000     0.286560000000     0.022400000000    -0.535429   
O38      O      0.054960000000     0.284330000000     0.513660000000    -0.549981   
O39      O      0.505080000000     0.288270000000     0.472440000000    -0.549662   
O40      O      0.014950000000     0.282610000000     0.062170000000    -0.552029   
O41      O      0.263920000000     0.224160000000     0.036820000000    -0.544324   
O42      O      0.253700000000     0.315740000000     0.028230000000    -0.548271   
O43      O      0.214390000000     0.265870000000     0.031550000000    -0.545454   
O44      O      0.304010000000     0.275560000000     0.033620000000    -0.54506    
O45      O      0.305970000000     0.268920000000     0.480880000000    -0.550582   
O46      O      0.216250000000     0.259160000000     0.478750000000    -0.539466   
O47      O      0.256580000000     0.310530000000     0.475380000000    -0.549711   
O48      O      0.266450000000     0.219070000000     0.483960000000    -0.551927   
O49      O      0.428970000000     0.286560000000     0.092230000000    -0.254492   
O50      O      0.424000000000     0.328910000000     0.059510000000    -0.336863   
O51      O      0.171880000000     0.199840000000     0.447150000000    -0.249797   
O52      O      0.181890000000     0.188970000000     0.498190000000    -0.340553   
O53      O      0.229230000000     0.440270000000     0.414160000000    -0.245959   
O54      O      0.279320000000     0.426950000000     0.424490000000    -0.341177   
O55      O      0.230500000000     0.102390000000     0.087530000000    -0.257479   
O56      O      0.281280000000     0.090040000000     0.079020000000    -0.33612    
O57      O      0.297250000000     0.454470000000     0.336830000000    -0.248383   
O58      O      0.320200000000     0.503140000000     0.333230000000    -0.343498   
O59      O      0.272780000000     0.430690000000     0.081010000000    -0.258401   
O60      O      0.308630000000     0.469840000000     0.087650000000    -0.335503   
O61      O      0.438300000000     0.301490000000     0.355700000000    -0.241484   
O62      O      0.468900000000     0.344070000000     0.344340000000    -0.346392   
O63      O      0.019050000000     0.341880000000     0.180960000000    -0.254182   
O64      O      0.064360000000     0.314700000000     0.175560000000    -0.340458   
O65      O      0.137480000000     0.462150000000     0.284930000000    -0.231791   
O66      O      0.130070000000     0.430590000000     0.242430000000    -0.341297   
O67      O      0.408560000000     0.064080000000     0.185460000000    -0.241635   
O68      O      0.418770000000     0.100450000000     0.223430000000    -0.34613    
O69      O      0.067890000000     0.445300000000     0.275110000000    -0.239736   
O70      O      0.039220000000     0.434890000000     0.318390000000    -0.336813   
O71      O      0.498210000000     0.181120000000     0.341150000000    -0.256936   
O72      O      0.451400000000     0.179530000000     0.316760000000    -0.338333   
O73      O      0.000090000000     0.066410000000     0.721880000000    -0.548803   
O74      O      0.492470000000     0.474220000000     0.722410000000    -0.548645   
O75      O      0.451630000000     0.024630000000     0.721710000000    -0.541546   
O76      O      0.040950000000     0.516060000000     0.722590000000    -0.554471   
O77      O      0.040440000000     0.024300000000     0.775200000000    -0.555937   
O78      O      0.451200000000     0.516970000000     0.774400000000    -0.560542   
O79      O      0.999650000000     0.474870000000     0.775110000000    -0.548948   
O80      O      0.491810000000     0.066420000000     0.774420000000    -0.562069   
O81      O      0.476400000000     0.258970000000     0.719790000000    -0.548314   
O82      O      0.477970000000     0.269860000000     0.809810000000    -0.532837   
O83      O      0.470950000000     0.309800000000     0.759750000000    -0.548885   
O84      O      0.483430000000     0.219010000000     0.770140000000    -0.542803   
O85      O      0.034980000000     0.225720000000     0.760290000000    -0.554861   
O86      O      0.022960000000     0.316830000000     0.766480000000    -0.552846   
O87      O      0.030800000000     0.268530000000     0.808290000000    -0.551662   
O88      O      0.027090000000     0.274170000000     0.718140000000    -0.54242    
O89      O      0.292350000000     0.490300000000     0.750790000000    -0.558693   
O90      O      0.202800000000     0.489180000000     0.749370000000    -0.551713   
O91      O      0.248790000000     0.487620000000     0.705220000000    -0.559279   
O92      O      0.247830000000     0.491760000000     0.795410000000    -0.544509   
O93      O      0.249320000000     0.046110000000     0.793030000000    -0.550196   
O94      O      0.242400000000     0.041540000000     0.702960000000    -0.55544    
O95      O      0.202020000000     0.043500000000     0.751960000000    -0.562679   
O96      O      0.291260000000     0.044130000000     0.743720000000    -0.554287   
O97      O      0.266760000000     0.500490000000     0.545180000000    -0.537715   
O98      O      0.274470000000     0.014220000000     0.956230000000    -0.551709   
O99      O      0.281030000000     0.052300000000     0.507640000000    -0.541381   
O100     O      0.260660000000     0.463390000000     0.992570000000    -0.535754   
O101     O      0.209240000000     0.476460000000     0.491740000000    -0.545038   
O102     O      0.229620000000     0.065380000000     0.005990000000    -0.558221   
O103     O      0.223450000000     0.528240000000     0.953760000000    -0.549793   
O104     O      0.215910000000     0.014870000000     0.543030000000    -0.553112   
O105     O      0.508620000000     0.228760000000     0.559330000000    -0.54791    
O106     O      0.008580000000     0.234170000000     0.968910000000    -0.548858   
O107     O      0.053630000000     0.230000000000     0.512920000000    -0.547927   
O108     O      0.463440000000     0.232990000000     0.013840000000    -0.547979   
O109     O      0.465230000000     0.286560000000     0.522400000000    -0.535226   
O110     O      0.054960000000     0.284330000000     0.013660000000    -0.550209   
O111     O      0.505080000000     0.288270000000     0.972430000000    -0.544872   
O112     O      0.014950000000     0.282610000000     0.562180000000    -0.552992   
O113     O      0.263920000000     0.224160000000     0.536820000000    -0.546316   
O114     O      0.253700000000     0.315740000000     0.528230000000    -0.551332   
O115     O      0.214390000000     0.265870000000     0.531550000000    -0.547557   
O116     O      0.304010000000     0.275560000000     0.533620000000    -0.547104   
O117     O      0.305970000000     0.268920000000     0.980880000000    -0.545626   
O118     O      0.216250000000     0.259160000000     0.978750000000    -0.534693   
O119     O      0.256580000000     0.310530000000     0.975380000000    -0.543769   
O120     O      0.266450000000     0.219070000000     0.983960000000    -0.5471     
O121     O      0.428970000000     0.286560000000     0.592230000000    -0.25448    
O122     O      0.424000000000     0.328910000000     0.559510000000    -0.336309   
O123     O      0.171880000000     0.199840000000     0.947150000000    -0.248678   
O124     O      0.181890000000     0.188970000000     0.998190000000    -0.337314   
O125     O      0.229230000000     0.440270000000     0.914160000000    -0.245723   
O126     O      0.279320000000     0.426950000000     0.924490000000    -0.340679   
O127     O      0.230500000000     0.102390000000     0.587530000000    -0.257104   
O128     O      0.281280000000     0.090040000000     0.579020000000    -0.335817   
O129     O      0.297250000000     0.454470000000     0.836830000000    -0.248213   
O130     O      0.320200000000     0.503140000000     0.833230000000    -0.343312   
O131     O      0.272780000000     0.430690000000     0.581010000000    -0.257881   
O132     O      0.308630000000     0.469840000000     0.587650000000    -0.335426   
O133     O      0.438300000000     0.301490000000     0.855700000000    -0.2413     
O134     O      0.468900000000     0.344070000000     0.844340000000    -0.346203   
O135     O      0.019050000000     0.341880000000     0.680960000000    -0.254106   
O136     O      0.064360000000     0.314700000000     0.675560000000    -0.340428   
O137     O      0.137480000000     0.462150000000     0.784930000000    -0.231698   
O138     O      0.130070000000     0.430590000000     0.742430000000    -0.341259   
O139     O      0.408560000000     0.064080000000     0.685460000000    -0.241427   
O140     O      0.418770000000     0.100450000000     0.723430000000    -0.346103   
O141     O      0.067890000000     0.445300000000     0.775110000000    -0.239629   
O142     O      0.039220000000     0.434890000000     0.818400000000    -0.336504   
O143     O      0.498210000000     0.181120000000     0.841150000000    -0.256694   
O144     O      0.451400000000     0.179530000000     0.816760000000    -0.338288   
O145     O      0.000090000000     0.566410000000     0.221880000000    -0.549016   
O146     O      0.492470000000     0.974220000000     0.222410000000    -0.548633   
O147     O      0.451630000000     0.524630000000     0.221710000000    -0.541636   
O148     O      0.040950000000     0.016060000000     0.222590000000    -0.554601   
O149     O      0.040440000000     0.524300000000     0.275200000000    -0.556032   
O150     O      0.451200000000     0.016970000000     0.274400000000    -0.560738   
O151     O      0.999650000000     0.974870000000     0.275110000000    -0.549139   
O152     O      0.491810000000     0.566430000000     0.274420000000    -0.56225    
O153     O      0.476400000000     0.758970000000     0.219790000000    -0.548461   
O154     O      0.477970000000     0.769860000000     0.309810000000    -0.532725   
O155     O      0.470950000000     0.809800000000     0.259750000000    -0.549024   
O156     O      0.483430000000     0.719020000000     0.270140000000    -0.542868   
O157     O      0.034980000000     0.725720000000     0.260290000000    -0.554791   
O158     O      0.022960000000     0.816820000000     0.266480000000    -0.553084   
O159     O      0.030800000000     0.768530000000     0.308290000000    -0.551857   
O160     O      0.027090000000     0.774180000000     0.218140000000    -0.542224   
O161     O      0.292350000000     0.990300000000     0.250790000000    -0.558573   
O162     O      0.202800000000     0.989190000000     0.249370000000    -0.551784   
O163     O      0.248790000000     0.987620000000     0.205220000000    -0.559161   
O164     O      0.247830000000     0.991760000000     0.295410000000    -0.54439    
O165     O      0.249320000000     0.546110000000     0.293030000000    -0.550242   
O166     O      0.242400000000     0.541540000000     0.202960000000    -0.555511   
O167     O      0.202020000000     0.543500000000     0.251970000000    -0.562638   
O168     O      0.291260000000     0.544130000000     0.243720000000    -0.554332   
O169     O      0.266760000000     0.000480000000     0.045180000000    -0.535656   
O170     O      0.274470000000     0.514220000000     0.456230000000    -0.557316   
O171     O      0.281030000000     0.552300000000     0.007640000000    -0.540315   
O172     O      0.260660000000     0.963390000000     0.492570000000    -0.541853   
O173     O      0.209240000000     0.976460000000     0.991740000000    -0.545865   
O174     O      0.229620000000     0.565380000000     0.505990000000    -0.551881   
O175     O      0.223450000000     0.028240000000     0.453760000000    -0.547842   
O176     O      0.215910000000     0.514870000000     0.043030000000    -0.558718   
O177     O      0.508620000000     0.728760000000     0.059330000000    -0.546912   
O178     O      0.008580000000     0.734170000000     0.468910000000    -0.553464   
O179     O      0.053630000000     0.730000000000     0.012920000000    -0.548325   
O180     O      0.463440000000     0.732990000000     0.513840000000    -0.547147   
O181     O      0.465230000000     0.786560000000     0.022400000000    -0.53543    
O182     O      0.054960000000     0.784330000000     0.513660000000    -0.549979   
O183     O      0.505080000000     0.788270000000     0.472440000000    -0.54966    
O184     O      0.014950000000     0.782610000000     0.062170000000    -0.55203    
O185     O      0.263920000000     0.724160000000     0.036820000000    -0.544325   
O186     O      0.253700000000     0.815740000000     0.028230000000    -0.548271   
O187     O      0.214390000000     0.765870000000     0.031550000000    -0.545456   
O188     O      0.304010000000     0.775560000000     0.033620000000    -0.54506    
O189     O      0.305970000000     0.768920000000     0.480880000000    -0.550581   
O190     O      0.216250000000     0.759160000000     0.478750000000    -0.53947    
O191     O      0.256580000000     0.810530000000     0.475380000000    -0.549711   
O192     O      0.266450000000     0.719070000000     0.483960000000    -0.551927   
O193     O      0.428970000000     0.786550000000     0.092230000000    -0.2544     
O194     O      0.424000000000     0.828920000000     0.059510000000    -0.336943   
O195     O      0.171880000000     0.699830000000     0.447150000000    -0.249759   
O196     O      0.181890000000     0.688970000000     0.498190000000    -0.340533   
O197     O      0.229230000000     0.940270000000     0.414160000000    -0.245922   
O198     O      0.279320000000     0.926950000000     0.424490000000    -0.341163   
O199     O      0.230500000000     0.602390000000     0.087530000000    -0.257478   
O200     O      0.281280000000     0.590040000000     0.079020000000    -0.336113   
O201     O      0.297250000000     0.954470000000     0.336830000000    -0.248416   
O202     O      0.320200000000     0.003140000000     0.333230000000    -0.343785   
O203     O      0.272780000000     0.930690000000     0.081010000000    -0.25838    
O204     O      0.308630000000     0.969840000000     0.087650000000    -0.335445   
O205     O      0.438300000000     0.801490000000     0.355700000000    -0.241489   
O206     O      0.468900000000     0.844070000000     0.344340000000    -0.346393   
O207     O      0.019050000000     0.841880000000     0.180960000000    -0.254152   
O208     O      0.064360000000     0.814700000000     0.175560000000    -0.340312   
O209     O      0.137480000000     0.962150000000     0.284930000000    -0.231733   
O210     O      0.130070000000     0.930590000000     0.242430000000    -0.341283   
O211     O      0.408560000000     0.564080000000     0.185460000000    -0.241614   
O212     O      0.418770000000     0.600450000000     0.223430000000    -0.34613    
O213     O      0.067890000000     0.945300000000     0.275110000000    -0.2397     
O214     O      0.039220000000     0.934890000000     0.318390000000    -0.336801   
O215     O      0.498210000000     0.681120000000     0.341150000000    -0.256934   
O216     O      0.451400000000     0.679520000000     0.316760000000    -0.338265   
O217     O      0.000090000000     0.566410000000     0.721880000000    -0.548892   
O218     O      0.492470000000     0.974220000000     0.722410000000    -0.548535   
O219     O      0.451630000000     0.524630000000     0.721710000000    -0.541554   
O220     O      0.040950000000     0.016060000000     0.722590000000    -0.554476   
O221     O      0.040440000000     0.524300000000     0.775200000000    -0.555914   
O222     O      0.451200000000     0.016970000000     0.774400000000    -0.560609   
O223     O      0.999650000000     0.974870000000     0.775110000000    -0.549044   
O224     O      0.491810000000     0.566430000000     0.774420000000    -0.562137   
O225     O      0.476400000000     0.758970000000     0.719790000000    -0.548328   
O226     O      0.477970000000     0.769860000000     0.809810000000    -0.532869   
O227     O      0.470950000000     0.809800000000     0.759750000000    -0.549007   
O228     O      0.483430000000     0.719020000000     0.770140000000    -0.542902   
O229     O      0.034980000000     0.725720000000     0.760290000000    -0.554808   
O230     O      0.022960000000     0.816820000000     0.766480000000    -0.553049   
O231     O      0.030800000000     0.768530000000     0.808290000000    -0.551684   
O232     O      0.027090000000     0.774180000000     0.718140000000    -0.542385   
O233     O      0.292350000000     0.990300000000     0.750790000000    -0.558575   
O234     O      0.202800000000     0.989190000000     0.749370000000    -0.551784   
O235     O      0.248790000000     0.987620000000     0.705220000000    -0.559154   
O236     O      0.247830000000     0.991760000000     0.795410000000    -0.544386   
O237     O      0.249320000000     0.546110000000     0.793030000000    -0.55025    
O238     O      0.242400000000     0.541540000000     0.702960000000    -0.555493   
O239     O      0.202020000000     0.543500000000     0.751960000000    -0.562659   
O240     O      0.291260000000     0.544130000000     0.743720000000    -0.554335   
O241     O      0.266760000000     0.000480000000     0.545180000000    -0.537674   
O242     O      0.274470000000     0.514220000000     0.956230000000    -0.551704   
O243     O      0.281030000000     0.552300000000     0.507640000000    -0.541403   
O244     O      0.260660000000     0.963390000000     0.992570000000    -0.53561    
O245     O      0.209240000000     0.976460000000     0.491740000000    -0.544899   
O246     O      0.229620000000     0.565380000000     0.005990000000    -0.558249   
O247     O      0.223450000000     0.028240000000     0.953760000000    -0.549789   
O248     O      0.215910000000     0.514870000000     0.543030000000    -0.553122   
O249     O      0.508620000000     0.728760000000     0.559330000000    -0.547908   
O250     O      0.008580000000     0.734170000000     0.968910000000    -0.548857   
O251     O      0.053630000000     0.730000000000     0.512920000000    -0.547926   
O252     O      0.463440000000     0.732990000000     0.013840000000    -0.547979   
O253     O      0.465230000000     0.786560000000     0.522400000000    -0.535227   
O254     O      0.054960000000     0.784330000000     0.013660000000    -0.550208   
O255     O      0.505080000000     0.788270000000     0.972430000000    -0.54487    
O256     O      0.014950000000     0.782610000000     0.562180000000    -0.552993   
O257     O      0.263920000000     0.724160000000     0.536820000000    -0.546316   
O258     O      0.253700000000     0.815740000000     0.528230000000    -0.551332   
O259     O      0.214390000000     0.765870000000     0.531550000000    -0.547558   
O260     O      0.304010000000     0.775560000000     0.533620000000    -0.547103   
O261     O      0.305970000000     0.768920000000     0.980880000000    -0.545625   
O262     O      0.216250000000     0.759160000000     0.978750000000    -0.534696   
O263     O      0.256580000000     0.810530000000     0.975380000000    -0.543769   
O264     O      0.266450000000     0.719070000000     0.983960000000    -0.5471     
O265     O      0.428970000000     0.786550000000     0.592230000000    -0.254388   
O266     O      0.424000000000     0.828920000000     0.559510000000    -0.336388   
O267     O      0.171880000000     0.699830000000     0.947150000000    -0.24864    
O268     O      0.181890000000     0.688970000000     0.998190000000    -0.337294   
O269     O      0.229230000000     0.940270000000     0.914160000000    -0.245686   
O270     O      0.279320000000     0.926950000000     0.924490000000    -0.340665   
O271     O      0.230500000000     0.602390000000     0.587530000000    -0.257103   
O272     O      0.281280000000     0.590040000000     0.579020000000    -0.335809   
O273     O      0.297250000000     0.954470000000     0.836830000000    -0.248246   
O274     O      0.320200000000     0.003140000000     0.833230000000    -0.3436     
O275     O      0.272780000000     0.930690000000     0.581010000000    -0.257861   
O276     O      0.308630000000     0.969840000000     0.587650000000    -0.335369   
O277     O      0.438300000000     0.801490000000     0.855700000000    -0.241305   
O278     O      0.468900000000     0.844070000000     0.844340000000    -0.346204   
O279     O      0.019050000000     0.841880000000     0.680960000000    -0.254077   
O280     O      0.064360000000     0.814700000000     0.675560000000    -0.340281   
O281     O      0.137480000000     0.962150000000     0.784930000000    -0.23164    
O282     O      0.130070000000     0.930590000000     0.742430000000    -0.341245   
O283     O      0.408560000000     0.564080000000     0.685460000000    -0.241406   
O284     O      0.418770000000     0.600450000000     0.723430000000    -0.346103   
O285     O      0.067890000000     0.945300000000     0.775110000000    -0.239593   
O286     O      0.039220000000     0.934890000000     0.818400000000    -0.336492   
O287     O      0.498210000000     0.681120000000     0.841150000000    -0.256691   
O288     O      0.451400000000     0.679520000000     0.816760000000    -0.33822    
O289     O      0.500080000000     0.066410000000     0.221880000000    -0.550773   
O290     O      0.992480000000     0.474220000000     0.222410000000    -0.548599   
O291     O      0.951630000000     0.024630000000     0.221710000000    -0.541369   
O292     O      0.540950000000     0.516060000000     0.222590000000    -0.555471   
O293     O      0.540440000000     0.024300000000     0.275200000000    -0.556767   
O294     O      0.951200000000     0.516970000000     0.274400000000    -0.560507   
O295     O      0.499650000000     0.474870000000     0.275110000000    -0.548877   
O296     O      0.991810000000     0.066420000000     0.274420000000    -0.561933   
O297     O      0.976400000000     0.258970000000     0.219790000000    -0.549284   
O298     O      0.977970000000     0.269860000000     0.309810000000    -0.533474   
O299     O      0.970950000000     0.309800000000     0.259750000000    -0.548689   
O300     O      0.983430000000     0.219010000000     0.270140000000    -0.543549   
O301     O      0.534980000000     0.225720000000     0.260290000000    -0.554519   
O302     O      0.522960000000     0.316830000000     0.266480000000    -0.553585   
O303     O      0.530800000000     0.268530000000     0.308290000000    -0.55151    
O304     O      0.527090000000     0.274170000000     0.218140000000    -0.541907   
O305     O      0.792350000000     0.490300000000     0.250790000000    -0.55869    
O306     O      0.702800000000     0.489180000000     0.249370000000    -0.551717   
O307     O      0.748790000000     0.487620000000     0.205220000000    -0.559287   
O308     O      0.747830000000     0.491760000000     0.295410000000    -0.544508   
O309     O      0.749320000000     0.046110000000     0.293030000000    -0.550187   
O310     O      0.742400000000     0.041540000000     0.202960000000    -0.555459   
O311     O      0.702020000000     0.043500000000     0.251970000000    -0.562661   
O312     O      0.791260000000     0.044130000000     0.243720000000    -0.554283   
O313     O      0.766770000000     0.500490000000     0.045180000000    -0.535511   
O314     O      0.774470000000     0.014220000000     0.456230000000    -0.557316   
O315     O      0.781030000000     0.052300000000     0.007640000000    -0.540208   
O316     O      0.760660000000     0.463390000000     0.492570000000    -0.541991   
O317     O      0.709240000000     0.476460000000     0.991740000000    -0.546027   
O318     O      0.729620000000     0.065380000000     0.505990000000    -0.55199    
O319     O      0.723450000000     0.528240000000     0.453760000000    -0.547855   
O320     O      0.715910000000     0.014870000000     0.043030000000    -0.558639   
O321     O      0.008620000000     0.228760000000     0.059330000000    -0.546796   
O322     O      0.508580000000     0.234170000000     0.468910000000    -0.553535   
O323     O      0.553630000000     0.230000000000     0.012920000000    -0.548134   
O324     O      0.963440000000     0.232990000000     0.513840000000    -0.547976   
O325     O      0.965230000000     0.286560000000     0.022400000000    -0.53622    
O326     O      0.554960000000     0.284330000000     0.513660000000    -0.549784   
O327     O      0.005080000000     0.288270000000     0.472440000000    -0.549484   
O328     O      0.514950000000     0.282610000000     0.062170000000    -0.55207    
O329     O      0.763920000000     0.224160000000     0.036820000000    -0.544329   
O330     O      0.753700000000     0.315740000000     0.028230000000    -0.548281   
O331     O      0.714390000000     0.265870000000     0.031550000000    -0.545457   
O332     O      0.804010000000     0.275560000000     0.033620000000    -0.545104   
O333     O      0.805970000000     0.268920000000     0.480880000000    -0.55064    
O334     O      0.716250000000     0.259160000000     0.478750000000    -0.539456   
O335     O      0.756580000000     0.310530000000     0.475380000000    -0.549719   
O336     O      0.766440000000     0.219070000000     0.483960000000    -0.551946   
O337     O      0.928970000000     0.286560000000     0.092230000000    -0.254679   
O338     O      0.924000000000     0.328910000000     0.059510000000    -0.337049   
O339     O      0.671880000000     0.199840000000     0.447150000000    -0.249819   
O340     O      0.681890000000     0.188970000000     0.498190000000    -0.34056    
O341     O      0.729230000000     0.440270000000     0.414160000000    -0.245974   
O342     O      0.779320000000     0.426950000000     0.424490000000    -0.341186   
O343     O      0.730500000000     0.102390000000     0.087530000000    -0.257494   
O344     O      0.781280000000     0.090040000000     0.079020000000    -0.336129   
O345     O      0.797240000000     0.454470000000     0.336830000000    -0.248393   
O346     O      0.820200000000     0.503140000000     0.333230000000    -0.343513   
O347     O      0.772780000000     0.430690000000     0.081010000000    -0.258407   
O348     O      0.808630000000     0.469840000000     0.087650000000    -0.335507   
O349     O      0.938300000000     0.301490000000     0.355700000000    -0.241609   
O350     O      0.968900000000     0.344070000000     0.344340000000    -0.346786   
O351     O      0.519050000000     0.341880000000     0.180960000000    -0.254811   
O352     O      0.564360000000     0.314700000000     0.175560000000    -0.340565   
O353     O      0.637480000000     0.462150000000     0.284930000000    -0.231807   
O354     O      0.630060000000     0.430590000000     0.242430000000    -0.34132    
O355     O      0.908560000000     0.064080000000     0.185460000000    -0.241711   
O356     O      0.918780000000     0.100450000000     0.223430000000    -0.346187   
O357     O      0.567890000000     0.445300000000     0.275110000000    -0.239845   
O358     O      0.539220000000     0.434890000000     0.318390000000    -0.337134   
O359     O      0.998210000000     0.181120000000     0.341150000000    -0.257545   
O360     O      0.951400000000     0.179530000000     0.316760000000    -0.338469   
O361     O      0.500080000000     0.066410000000     0.721880000000    -0.550673   
O362     O      0.992480000000     0.474220000000     0.722410000000    -0.5485     
O363     O      0.951630000000     0.024630000000     0.721710000000    -0.541282   
O364     O      0.540950000000     0.516060000000     0.722590000000    -0.555361   
O365     O      0.540440000000     0.024300000000     0.775200000000    -0.556661   
O366     O      0.951200000000     0.516970000000     0.774400000000    -0.560375   
O367     O      0.499650000000     0.474870000000     0.775110000000    -0.548779   
O368     O      0.991810000000     0.066420000000     0.774420000000    -0.561818   
O369     O      0.976400000000     0.258970000000     0.719790000000    -0.549162   
O370     O      0.977970000000     0.269860000000     0.809810000000    -0.533629   
O371     O      0.970950000000     0.309800000000     0.759750000000    -0.548668   
O372     O      0.983430000000     0.219010000000     0.770140000000    -0.543595   
O373     O      0.534980000000     0.225720000000     0.760290000000    -0.554532   
O374     O      0.522960000000     0.316830000000     0.766480000000    -0.553562   
O375     O      0.530800000000     0.268530000000     0.808290000000    -0.551334   
O376     O      0.527090000000     0.274170000000     0.718140000000    -0.542063   
O377     O      0.792350000000     0.490300000000     0.750790000000    -0.558692   
O378     O      0.702800000000     0.489180000000     0.749370000000    -0.551716   
O379     O      0.748790000000     0.487620000000     0.705220000000    -0.559281   
O380     O      0.747830000000     0.491760000000     0.795410000000    -0.544504   
O381     O      0.749320000000     0.046110000000     0.793030000000    -0.550195   
O382     O      0.742400000000     0.041540000000     0.702960000000    -0.555442   
O383     O      0.702020000000     0.043500000000     0.751960000000    -0.562682   
O384     O      0.791260000000     0.044130000000     0.743720000000    -0.554286   
O385     O      0.766770000000     0.500490000000     0.545180000000    -0.537525   
O386     O      0.774470000000     0.014220000000     0.956230000000    -0.551721   
O387     O      0.781030000000     0.052300000000     0.507640000000    -0.541293   
O388     O      0.760660000000     0.463390000000     0.992570000000    -0.535765   
O389     O      0.709240000000     0.476460000000     0.491740000000    -0.545065   
O390     O      0.729620000000     0.065380000000     0.005990000000    -0.558345   
O391     O      0.723450000000     0.528240000000     0.953760000000    -0.549798   
O392     O      0.715910000000     0.014870000000     0.543030000000    -0.553055   
O393     O      0.008620000000     0.228760000000     0.559330000000    -0.547791   
O394     O      0.508580000000     0.234170000000     0.968910000000    -0.548929   
O395     O      0.553630000000     0.230000000000     0.512920000000    -0.547734   
O396     O      0.963440000000     0.232990000000     0.013840000000    -0.548787   
O397     O      0.965230000000     0.286560000000     0.522400000000    -0.536034   
O398     O      0.554960000000     0.284330000000     0.013660000000    -0.550016   
O399     O      0.005080000000     0.288270000000     0.972430000000    -0.544693   
O400     O      0.514950000000     0.282610000000     0.562180000000    -0.553033   
O401     O      0.763920000000     0.224160000000     0.536820000000    -0.546315   
O402     O      0.753700000000     0.315740000000     0.528230000000    -0.551334   
O403     O      0.714390000000     0.265870000000     0.531550000000    -0.547555   
O404     O      0.804010000000     0.275560000000     0.533620000000    -0.547141   
O405     O      0.805970000000     0.268920000000     0.980880000000    -0.545701   
O406     O      0.716250000000     0.259160000000     0.978750000000    -0.534692   
O407     O      0.756580000000     0.310530000000     0.975380000000    -0.543792   
O408     O      0.766440000000     0.219070000000     0.983960000000    -0.547132   
O409     O      0.928970000000     0.286560000000     0.592230000000    -0.25467    
O410     O      0.924000000000     0.328910000000     0.559510000000    -0.336498   
O411     O      0.671880000000     0.199840000000     0.947150000000    -0.248702   
O412     O      0.681890000000     0.188970000000     0.998190000000    -0.337326   
O413     O      0.729230000000     0.440270000000     0.914160000000    -0.245738   
O414     O      0.779320000000     0.426950000000     0.924490000000    -0.34069    
O415     O      0.730500000000     0.102390000000     0.587530000000    -0.25712    
O416     O      0.781280000000     0.090040000000     0.579020000000    -0.335827   
O417     O      0.797240000000     0.454470000000     0.836830000000    -0.248224   
O418     O      0.820200000000     0.503140000000     0.833230000000    -0.343327   
O419     O      0.772780000000     0.430690000000     0.581010000000    -0.257889   
O420     O      0.808630000000     0.469840000000     0.587650000000    -0.335431   
O421     O      0.938300000000     0.301490000000     0.855700000000    -0.241428   
O422     O      0.968900000000     0.344070000000     0.844340000000    -0.346605   
O423     O      0.519050000000     0.341880000000     0.680960000000    -0.254742   
O424     O      0.564360000000     0.314700000000     0.675560000000    -0.340536   
O425     O      0.637480000000     0.462150000000     0.784930000000    -0.231714   
O426     O      0.630060000000     0.430590000000     0.742430000000    -0.341282   
O427     O      0.908560000000     0.064080000000     0.685460000000    -0.241506   
O428     O      0.918780000000     0.100450000000     0.723430000000    -0.34616    
O429     O      0.567890000000     0.445300000000     0.775110000000    -0.239739   
O430     O      0.539220000000     0.434890000000     0.818400000000    -0.336828   
O431     O      0.998210000000     0.181120000000     0.841150000000    -0.257315   
O432     O      0.951400000000     0.179530000000     0.816760000000    -0.338427   
O433     O      0.500080000000     0.566410000000     0.221880000000    -0.550861   
O434     O      0.992480000000     0.974220000000     0.222410000000    -0.548489   
O435     O      0.951630000000     0.524630000000     0.221710000000    -0.541377   
O436     O      0.540950000000     0.016060000000     0.222590000000    -0.555477   
O437     O      0.540440000000     0.524300000000     0.275200000000    -0.556743   
O438     O      0.951200000000     0.016970000000     0.274400000000    -0.560574   
O439     O      0.499650000000     0.974870000000     0.275110000000    -0.548974   
O440     O      0.991810000000     0.566430000000     0.274420000000    -0.562001   
O441     O      0.976400000000     0.758970000000     0.219790000000    -0.549297   
O442     O      0.977970000000     0.769860000000     0.309810000000    -0.533507   
O443     O      0.970950000000     0.809800000000     0.259750000000    -0.54881    
O444     O      0.983430000000     0.719020000000     0.270140000000    -0.543647   
O445     O      0.534980000000     0.725720000000     0.260290000000    -0.554467   
O446     O      0.522960000000     0.816820000000     0.266480000000    -0.553788   
O447     O      0.530800000000     0.768530000000     0.308290000000    -0.551532   
O448     O      0.527090000000     0.774180000000     0.218140000000    -0.541871   
O449     O      0.792350000000     0.990300000000     0.250790000000    -0.558572   
O450     O      0.702800000000     0.989190000000     0.249370000000    -0.551787   
O451     O      0.748790000000     0.987620000000     0.205220000000    -0.559162   
O452     O      0.747830000000     0.991760000000     0.295410000000    -0.544385   
O453     O      0.749320000000     0.546110000000     0.293030000000    -0.550241   
O454     O      0.742400000000     0.541540000000     0.202960000000    -0.555512   
O455     O      0.702020000000     0.543500000000     0.251970000000    -0.562641   
O456     O      0.791260000000     0.544130000000     0.243720000000    -0.554331   
O457     O      0.766770000000     0.000480000000     0.045180000000    -0.535472   
O458     O      0.774470000000     0.514220000000     0.456230000000    -0.557312   
O459     O      0.781030000000     0.552300000000     0.007640000000    -0.54023    
O460     O      0.760660000000     0.963390000000     0.492570000000    -0.541846   
O461     O      0.709240000000     0.976460000000     0.991740000000    -0.545889   
O462     O      0.729620000000     0.565380000000     0.505990000000    -0.552017   
O463     O      0.723450000000     0.028240000000     0.453760000000    -0.547851   
O464     O      0.715910000000     0.514870000000     0.043030000000    -0.55865    
O465     O      0.008620000000     0.728760000000     0.059330000000    -0.546795   
O466     O      0.508580000000     0.734170000000     0.468910000000    -0.553533   
O467     O      0.553630000000     0.730000000000     0.012920000000    -0.548134   
O468     O      0.963440000000     0.732990000000     0.513840000000    -0.547976   
O469     O      0.965230000000     0.786560000000     0.022400000000    -0.536221   
O470     O      0.554960000000     0.784330000000     0.513660000000    -0.549783   
O471     O      0.005080000000     0.788270000000     0.472440000000    -0.549482   
O472     O      0.514950000000     0.782610000000     0.062170000000    -0.552071   
O473     O      0.763920000000     0.724160000000     0.036820000000    -0.54433    
O474     O      0.753700000000     0.815740000000     0.028230000000    -0.54828    
O475     O      0.714390000000     0.765870000000     0.031550000000    -0.545458   
O476     O      0.804010000000     0.775560000000     0.033620000000    -0.545103   
O477     O      0.805970000000     0.768920000000     0.480880000000    -0.550639   
O478     O      0.716250000000     0.759160000000     0.478750000000    -0.53946    
O479     O      0.756580000000     0.810530000000     0.475380000000    -0.549719   
O480     O      0.766440000000     0.719070000000     0.483960000000    -0.551946   
O481     O      0.928970000000     0.786550000000     0.092230000000    -0.254587   
O482     O      0.924000000000     0.828920000000     0.059510000000    -0.337129   
O483     O      0.671880000000     0.699830000000     0.447150000000    -0.249781   
O484     O      0.681890000000     0.688970000000     0.498190000000    -0.340541   
O485     O      0.729230000000     0.940270000000     0.414160000000    -0.245937   
O486     O      0.779320000000     0.926950000000     0.424490000000    -0.341172   
O487     O      0.730500000000     0.602390000000     0.087530000000    -0.257493   
O488     O      0.781280000000     0.590040000000     0.079020000000    -0.336121   
O489     O      0.797240000000     0.954470000000     0.336830000000    -0.248426   
O490     O      0.820200000000     0.003140000000     0.333230000000    -0.343801   
O491     O      0.772780000000     0.930690000000     0.081010000000    -0.258386   
O492     O      0.808630000000     0.969840000000     0.087650000000    -0.335449   
O493     O      0.938300000000     0.801490000000     0.355700000000    -0.241614   
O494     O      0.968900000000     0.844070000000     0.344340000000    -0.346787   
O495     O      0.519050000000     0.841880000000     0.180960000000    -0.254781   
O496     O      0.564360000000     0.814700000000     0.175560000000    -0.340418   
O497     O      0.637480000000     0.962150000000     0.284930000000    -0.231749   
O498     O      0.630060000000     0.930590000000     0.242430000000    -0.341305   
O499     O      0.908560000000     0.564080000000     0.185460000000    -0.24169    
O500     O      0.918780000000     0.600450000000     0.223430000000    -0.346187   
O501     O      0.567890000000     0.945300000000     0.275110000000    -0.239808   
O502     O      0.539220000000     0.934890000000     0.318390000000    -0.337122   
O503     O      0.998210000000     0.681120000000     0.341150000000    -0.257542   
O504     O      0.951400000000     0.679520000000     0.316760000000    -0.338401   
O505     O      0.500080000000     0.566410000000     0.721880000000    -0.550761   
O506     O      0.992480000000     0.974220000000     0.722410000000    -0.54839    
O507     O      0.951630000000     0.524630000000     0.721710000000    -0.54129    
O508     O      0.540950000000     0.016060000000     0.722590000000    -0.555367   
O509     O      0.540440000000     0.524300000000     0.775200000000    -0.556638   
O510     O      0.951200000000     0.016970000000     0.774400000000    -0.560442   
O511     O      0.499650000000     0.974870000000     0.775110000000    -0.548876   
O512     O      0.991810000000     0.566430000000     0.774420000000    -0.561885   
O513     O      0.976400000000     0.758970000000     0.719790000000    -0.549175   
O514     O      0.977970000000     0.769860000000     0.809810000000    -0.533661   
O515     O      0.970950000000     0.809800000000     0.759750000000    -0.548789   
O516     O      0.983430000000     0.719020000000     0.770140000000    -0.543693   
O517     O      0.534980000000     0.725720000000     0.760290000000    -0.55448    
O518     O      0.522960000000     0.816820000000     0.766480000000    -0.553764   
O519     O      0.530800000000     0.768530000000     0.808290000000    -0.551355   
O520     O      0.527090000000     0.774180000000     0.718140000000    -0.542028   
O521     O      0.792350000000     0.990300000000     0.750790000000    -0.558573   
O522     O      0.702800000000     0.989190000000     0.749370000000    -0.551787   
O523     O      0.748790000000     0.987620000000     0.705220000000    -0.559155   
O524     O      0.747830000000     0.991760000000     0.795410000000    -0.544381   
O525     O      0.749320000000     0.546110000000     0.793030000000    -0.55025    
O526     O      0.742400000000     0.541540000000     0.702960000000    -0.555495   
O527     O      0.702020000000     0.543500000000     0.751960000000    -0.562662   
O528     O      0.791260000000     0.544130000000     0.743720000000    -0.554334   
O529     O      0.766770000000     0.000480000000     0.545180000000    -0.537484   
O530     O      0.774470000000     0.514220000000     0.956230000000    -0.551716   
O531     O      0.781030000000     0.552300000000     0.507640000000    -0.541315   
O532     O      0.760660000000     0.963390000000     0.992570000000    -0.535621   
O533     O      0.709240000000     0.976460000000     0.491740000000    -0.544927   
O534     O      0.729620000000     0.565380000000     0.005990000000    -0.558372   
O535     O      0.723450000000     0.028240000000     0.953760000000    -0.549794   
O536     O      0.715910000000     0.514870000000     0.543030000000    -0.553065   
O537     O      0.008620000000     0.728760000000     0.559330000000    -0.54779    
O538     O      0.508580000000     0.734170000000     0.968910000000    -0.548927   
O539     O      0.553630000000     0.730000000000     0.512920000000    -0.547733   
O540     O      0.963440000000     0.732990000000     0.013840000000    -0.548787   
O541     O      0.965230000000     0.786560000000     0.522400000000    -0.536035   
O542     O      0.554960000000     0.784330000000     0.013660000000    -0.550014   
O543     O      0.005080000000     0.788270000000     0.972430000000    -0.54469    
O544     O      0.514950000000     0.782610000000     0.562180000000    -0.553034   
O545     O      0.763920000000     0.724160000000     0.536820000000    -0.546316   
O546     O      0.753700000000     0.815740000000     0.528230000000    -0.551334   
O547     O      0.714390000000     0.765870000000     0.531550000000    -0.547556   
O548     O      0.804010000000     0.775560000000     0.533620000000    -0.547141   
O549     O      0.805970000000     0.768920000000     0.980880000000    -0.5457     
O550     O      0.716250000000     0.759160000000     0.978750000000    -0.534696   
O551     O      0.756580000000     0.810530000000     0.975380000000    -0.543792   
O552     O      0.766440000000     0.719070000000     0.983960000000    -0.547133   
O553     O      0.928970000000     0.786550000000     0.592230000000    -0.254579   
O554     O      0.924000000000     0.828920000000     0.559510000000    -0.336578   
O555     O      0.671880000000     0.699830000000     0.947150000000    -0.248664   
O556     O      0.681890000000     0.688970000000     0.998190000000    -0.337307   
O557     O      0.729230000000     0.940270000000     0.914160000000    -0.245701   
O558     O      0.779320000000     0.926950000000     0.924490000000    -0.340675   
O559     O      0.730500000000     0.602390000000     0.587530000000    -0.257118   
O560     O      0.781280000000     0.590040000000     0.579020000000    -0.335819   
O561     O      0.797240000000     0.954470000000     0.836830000000    -0.248257   
O562     O      0.820200000000     0.003140000000     0.833230000000    -0.343616   
O563     O      0.772780000000     0.930690000000     0.581010000000    -0.257868   
O564     O      0.808630000000     0.969840000000     0.587650000000    -0.335373   
O565     O      0.938300000000     0.801490000000     0.855700000000    -0.241433   
O566     O      0.968900000000     0.844070000000     0.844340000000    -0.346606   
O567     O      0.519050000000     0.841880000000     0.680960000000    -0.254713   
O568     O      0.564360000000     0.814700000000     0.675560000000    -0.340389   
O569     O      0.637480000000     0.962150000000     0.784930000000    -0.231656   
O570     O      0.630060000000     0.930590000000     0.742430000000    -0.341268   
O571     O      0.908560000000     0.564080000000     0.685460000000    -0.241484   
O572     O      0.918780000000     0.600450000000     0.723430000000    -0.34616    
O573     O      0.567890000000     0.945300000000     0.775110000000    -0.239702   
O574     O      0.539220000000     0.934890000000     0.818400000000    -0.336816   
O575     O      0.998210000000     0.681120000000     0.841150000000    -0.257312   
O576     O      0.951400000000     0.679520000000     0.816760000000    -0.338359   
V1       V      0.496290000000     0.020310000000     0.219820000000     1.39613    
V2       V      0.495760000000     0.520660000000     0.277050000000     1.42768    
V3       V      0.474910000000     0.264040000000     0.264880000000     1.39946    
V4       V      0.031210000000     0.271610000000     0.263140000000     1.4081     
V5       V      0.247820000000     0.487490000000     0.250380000000     1.42751    
V6       V      0.246370000000     0.046070000000     0.247850000000     1.40141    
V7       V      0.272790000000     0.007150000000     0.000650000000     1.38762    
V8       V      0.217470000000     0.021650000000     0.498420000000     1.3944     
V9       V      0.008480000000     0.229250000000     0.013750000000     1.37739    
V10      V      0.010110000000     0.287650000000     0.517650000000     1.39696    
V11      V      0.259020000000     0.270400000000     0.034680000000     1.37984    
V12      V      0.261270000000     0.264340000000     0.477620000000     1.39486    
V13      V      0.496290000000     0.020310000000     0.719820000000     1.39605    
V14      V      0.495760000000     0.520660000000     0.777040000000     1.42781    
V15      V      0.474910000000     0.264040000000     0.764890000000     1.39942    
V16      V      0.031210000000     0.271610000000     0.763130000000     1.40811    
V17      V      0.247820000000     0.487490000000     0.750380000000     1.42746    
V18      V      0.246370000000     0.046070000000     0.747850000000     1.40141    
V19      V      0.272790000000     0.007150000000     0.500650000000     1.4099     
V20      V      0.217470000000     0.021650000000     0.998420000000     1.417      
V21      V      0.008480000000     0.229250000000     0.513750000000     1.38384    
V22      V      0.010110000000     0.287650000000     0.017650000000     1.39103    
V23      V      0.259020000000     0.270400000000     0.534680000000     1.38785    
V24      V      0.261270000000     0.264340000000     0.977620000000     1.39817    
V25      V      0.496290000000     0.520310000000     0.219820000000     1.39637    
V26      V      0.495760000000     0.020650000000     0.277050000000     1.42782    
V27      V      0.474910000000     0.764040000000     0.264880000000     1.39971    
V28      V      0.031210000000     0.771610000000     0.263140000000     1.4083     
V29      V      0.247820000000     0.987490000000     0.250380000000     1.42768    
V30      V      0.246370000000     0.546070000000     0.247850000000     1.40158    
V31      V      0.272790000000     0.507150000000     0.000650000000     1.38788    
V32      V      0.217470000000     0.521650000000     0.498420000000     1.39456    
V33      V      0.008480000000     0.729250000000     0.013750000000     1.37739    
V34      V      0.010110000000     0.787650000000     0.517650000000     1.39697    
V35      V      0.259020000000     0.770400000000     0.034680000000     1.37983    
V36      V      0.261270000000     0.764340000000     0.477620000000     1.39485    
V37      V      0.496290000000     0.520310000000     0.719820000000     1.39629    
V38      V      0.495760000000     0.020650000000     0.777040000000     1.42795    
V39      V      0.474910000000     0.764040000000     0.764890000000     1.39967    
V40      V      0.031210000000     0.771610000000     0.763130000000     1.40831    
V41      V      0.247820000000     0.987490000000     0.750380000000     1.42762    
V42      V      0.246370000000     0.546070000000     0.747850000000     1.40158    
V43      V      0.272790000000     0.507150000000     0.500650000000     1.41017    
V44      V      0.217470000000     0.521650000000     0.998420000000     1.41715    
V45      V      0.008480000000     0.729250000000     0.513750000000     1.38384    
V46      V      0.010110000000     0.787650000000     0.017650000000     1.39103    
V47      V      0.259020000000     0.770400000000     0.534680000000     1.38785    
V48      V      0.261270000000     0.764340000000     0.977620000000     1.39816    
V49      V      0.996290000000     0.020310000000     0.219820000000     1.3939     
V50      V      0.995760000000     0.520660000000     0.277050000000     1.42672    
V51      V      0.974910000000     0.264040000000     0.264880000000     1.3987     
V52      V      0.531210000000     0.271610000000     0.263140000000     1.40687    
V53      V      0.747820000000     0.487490000000     0.250380000000     1.42752    
V54      V      0.746370000000     0.046070000000     0.247850000000     1.40141    
V55      V      0.772790000000     0.007150000000     0.000650000000     1.38758    
V56      V      0.717470000000     0.021650000000     0.498420000000     1.39435    
V57      V      0.508480000000     0.229250000000     0.013750000000     1.37611    
V58      V      0.510110000000     0.287650000000     0.517650000000     1.39571    
V59      V      0.759020000000     0.270400000000     0.034680000000     1.37987    
V60      V      0.761270000000     0.264340000000     0.477620000000     1.39491    
V61      V      0.996290000000     0.020310000000     0.719820000000     1.39378    
V62      V      0.995760000000     0.520660000000     0.777040000000     1.42684    
V63      V      0.974910000000     0.264040000000     0.764890000000     1.39865    
V64      V      0.531210000000     0.271610000000     0.763130000000     1.40686    
V65      V      0.747820000000     0.487490000000     0.750380000000     1.42747    
V66      V      0.746370000000     0.046070000000     0.747850000000     1.40142    
V67      V      0.772790000000     0.007150000000     0.500650000000     1.40981    
V68      V      0.717470000000     0.021650000000     0.998420000000     1.4169     
V69      V      0.508480000000     0.229250000000     0.513750000000     1.38255    
V70      V      0.510110000000     0.287650000000     0.017650000000     1.38979    
V71      V      0.759020000000     0.270400000000     0.534680000000     1.38786    
V72      V      0.761270000000     0.264340000000     0.977620000000     1.39821    
V73      V      0.996290000000     0.520310000000     0.219820000000     1.39414    
V74      V      0.995760000000     0.020650000000     0.277050000000     1.42686    
V75      V      0.974910000000     0.764040000000     0.264880000000     1.39895    
V76      V      0.531210000000     0.771610000000     0.263140000000     1.40707    
V77      V      0.747820000000     0.987490000000     0.250380000000     1.42769    
V78      V      0.746370000000     0.546070000000     0.247850000000     1.40158    
V79      V      0.772790000000     0.507150000000     0.000650000000     1.38784    
V80      V      0.717470000000     0.521650000000     0.498420000000     1.39451    
V81      V      0.508480000000     0.729250000000     0.013750000000     1.37611    
V82      V      0.510110000000     0.787650000000     0.517650000000     1.39571    
V83      V      0.759020000000     0.770400000000     0.034680000000     1.37986    
V84      V      0.761270000000     0.764340000000     0.477620000000     1.3949     
V85      V      0.996290000000     0.520310000000     0.719820000000     1.39402    
V86      V      0.995760000000     0.020650000000     0.777040000000     1.42697    
V87      V      0.974910000000     0.764040000000     0.764890000000     1.3989     
V88      V      0.531210000000     0.771610000000     0.763130000000     1.40706    
V89      V      0.747820000000     0.987490000000     0.750380000000     1.42763    
V90      V      0.746370000000     0.546070000000     0.747850000000     1.40159    
V91      V      0.772790000000     0.507150000000     0.500650000000     1.41007    
V92      V      0.717470000000     0.521650000000     0.998420000000     1.41705    
V93      V      0.508480000000     0.729250000000     0.513750000000     1.38255    
V94      V      0.510110000000     0.787650000000     0.017650000000     1.38979    
V95      V      0.759020000000     0.770400000000     0.534680000000     1.38786    
V96      V      0.761270000000     0.764340000000     0.977620000000     1.39821    


