data_structure

_audit_creation_method RASPA-1.0
_audit_creation_date 2023-6-5
_audit_author_name 'Poobodin Mano'

_cell_length_a    34.04
_cell_length_b    33.5015
_cell_length_c    39.9125
_cell_angle_alpha 89.9811
_cell_angle_beta  90.0189
_cell_angle_gamma 119.984
_cell_volume      39424.2

_symmetry_cell_setting          triclinic
_symmetry_space_group_name_Hall 'P 1'
_symmetry_space_group_name_H-M  'P 1'
_symmetry_Int_Tables_number     1

_symmetry_equiv_pos_as_xyz 'x,y,z'

loop_
_atom_site_label
_atom_site_type_symbol
_atom_site_fract_x
_atom_site_fract_y
_atom_site_fract_z
_atom_site_charge
C1       C      0.822890000000     0.698390000000     0.417240000000     0.476377   
C2       C      0.882520000000     0.688160000000     0.302660000000     0.474074   
C3       C      0.931550000000     0.729640000000     0.383900000000     0.475365   
C4       C      0.772230000000     0.656510000000     0.336940000000     0.473171   
C5       C      0.211890000000     0.876520000000     0.342380000000     0.471833   
C6       C      0.181210000000     0.846950000000     0.466970000000     0.470553   
C7       C      0.112700000000     0.814200000000     0.392680000000     0.480693   
C8       C      0.281560000000     0.908970000000     0.415840000000     0.480027   
C9       C      0.529550000000     0.023750000000     0.030730000000     0.477814   
C10      C      0.544920000000     0.023850000000     0.404840000000     0.481742   
C11      C      0.622880000000     0.059230000000     0.972560000000     0.480681   
C12      C      0.452410000000     0.988650000000     0.462890000000     0.475029   
C13      C      0.138010000000     0.341560000000     0.247100000000     0.477428   
C14      C      0.199690000000     0.340330000000     0.131740000000     0.471713   
C15      C      0.248380000000     0.384460000000     0.212770000000     0.475643   
C16      C      0.088450000000     0.297870000000     0.165620000000     0.473931   
C17      C      0.840890000000     0.157090000000     0.117520000000     0.484759   
C18      C      0.883840000000     0.201520000000     0.997140000000     0.483732   
C19      C      0.939300000000     0.219930000000     0.080940000000     0.474659   
C20      C      0.779130000000     0.134240000000     0.037350000000     0.475615   
C21      C      0.483590000000     0.495490000000     0.338770000000     0.475097   
C22      C      0.530870000000     0.549360000000     0.219590000000     0.474226   
C23      C      0.589780000000     0.566480000000     0.296250000000     0.471715   
C24      C      0.423870000000     0.476870000000     0.262830000000     0.471739   
C25      C      0.170640000000     0.338930000000     0.374520000000     0.471313   
C26      C      0.209160000000     0.333360000000     0.496630000000     0.473461   
C27      C      0.231420000000     0.293720000000     0.417750000000     0.472295   
C28      C      0.150480000000     0.379390000000     0.452660000000     0.474401   
C29      C      0.343560000000     0.153010000000     0.363780000000     0.47623    
C30      C      0.338330000000     0.213630000000     0.248690000000     0.480556   
C31      C      0.301320000000     0.223830000000     0.332260000000     0.479095   
C32      C      0.378640000000     0.141860000000     0.281830000000     0.474914   
C33      C      0.034430000000     0.554060000000     0.439310000000     0.467188   
C34      C      0.040200000000     0.499970000000     0.057540000000     0.466032   
C35      C      0.069080000000     0.479610000000     0.472960000000     0.479933   
C36      C      0.004460000000     0.572780000000     0.024410000000     0.469286   
C37      C      0.690800000000     0.880320000000     0.112730000000     0.474603   
C38      C      0.689710000000     0.815880000000     0.227840000000     0.477959   
C39      C      0.726450000000     0.806510000000     0.144790000000     0.481824   
C40      C      0.652960000000     0.892490000000     0.193970000000     0.479504   
C41      C      0.891060000000     0.687550000000     0.167450000000     0.466792   
C42      C      0.850070000000     0.696780000000     0.046360000000     0.46895    
C43      C      0.823600000000     0.725130000000     0.127370000000     0.476121   
C44      C      0.920040000000     0.659730000000     0.084850000000     0.477318   
C45      C      0.485590000000     0.014520000000     0.153880000000     0.483601   
C46      C      0.542010000000     0.015790000000     0.271130000000     0.477513   
C47      C      0.557930000000     0.977590000000     0.192590000000     0.474179   
C48      C      0.469380000000     0.053120000000     0.232550000000     0.472631   
C49      C      0.345220000000     0.177690000000     0.992560000000     0.480478   
C50      C      0.340820000000     0.191970000000     0.118560000000     0.474425   
C51      C      0.379620000000     0.271370000000     0.049360000000     0.478      
C52      C      0.307000000000     0.097720000000     0.060760000000     0.480107   
C53      C      0.486970000000     0.499690000000     0.469570000000     0.478691   
C54      C      0.542980000000     0.566800000000     0.084820000000     0.477046   
C55      C      0.561590000000     0.615070000000     0.501400000000     0.472629   
C56      C      0.470960000000     0.455230000000     0.051780000000     0.473951   
C57      C      0.228430000000     0.895330000000     0.211460000000     0.478327   
C58      C      0.159320000000     0.828720000000     0.098060000000     0.476172   
C59      C      0.150780000000     0.782420000000     0.181730000000     0.479641   
C60      C      0.235600000000     0.940760000000     0.128520000000     0.473622   
C61      C      0.041010000000     0.490150000000     0.190650000000     0.473577   
C62      C      0.042540000000     0.559990000000     0.304290000000     0.467485   
C63      C      0.072680000000     0.603460000000     0.219070000000     0.474579   
C64      C      0.011740000000     0.448370000000     0.275520000000     0.480486   
C65      C      0.862360000000     0.157600000000     0.252690000000     0.476288   
C66      C      0.911030000000     0.224260000000     0.368680000000     0.478445   
C67      C      0.927770000000     0.269840000000     0.286440000000     0.476386   
C68      C      0.842790000000     0.109090000000     0.335750000000     0.47967    
C69      C      0.698480000000     0.888470000000     0.478710000000     0.47298    
C70      C      0.694690000000     0.839710000000     0.357920000000     0.470729   
C71      C      0.651520000000     0.778710000000     0.434810000000     0.477174   
C72      C      0.742580000000     0.947550000000     0.402040000000     0.472525   
C73      C      0.747620000000     0.019930000000     0.381100000000    -0.0100686  
C74      C      0.817860000000     0.018050000000     0.395970000000    -0.0352869  
C75      C      0.768280000000     0.040600000000     0.346960000000    -0.0076945  
C76      C      0.838540000000     0.037360000000     0.361340000000     0.0753466  
C77      C      0.890700000000     0.062460000000     0.363950000000    -0.177466   
C78      C      0.999480000000     0.340240000000     0.269510000000    -0.0079517  
C79      C      0.925740000000     0.340290000000     0.272600000000    -0.0356805  
C80      C      0.021230000000     0.382810000000     0.292830000000    -0.0110748  
C81      C      0.946050000000     0.377150000000     0.299710000000     0.0803757  
C82      C      0.918590000000     0.401740000000     0.305490000000    -0.17688    
C83      C      0.137930000000     0.672510000000     0.194500000000    -0.00854661 
C84      C      0.060360000000     0.663600000000     0.192630000000    -0.0359602  
C85      C      0.156610000000     0.720240000000     0.209500000000    -0.0067974  
C86      C      0.079960000000     0.713330000000     0.206000000000     0.0755177  
C87      C      0.050460000000     0.733330000000     0.193530000000    -0.179493   
C88      C      0.566640000000     0.688620000000     0.483930000000    -0.0105508  
C89      C      0.635030000000     0.678590000000     0.480260000000    -0.037423   
C90      C      0.577650000000     0.710690000000     0.449050000000    -0.00833209 
C91      C      0.644890000000     0.700260000000     0.445110000000     0.0779343  
C92      C      0.695030000000     0.719480000000     0.435640000000    -0.180196   
C93      C      0.232840000000     0.008690000000     0.107750000000    -0.00961154 
C94      C      0.305030000000     0.004910000000     0.102530000000    -0.0383313  
C95      C      0.237910000000     0.023680000000     0.071210000000    -0.0074015  
C96      C      0.310220000000     0.023470000000     0.066470000000     0.0788718  
C97      C      0.359930000000     0.047630000000     0.054750000000    -0.180805   
C98      C      0.468020000000     0.383460000000     0.070260000000    -0.00866146 
C99      C      0.396730000000     0.386640000000     0.065900000000    -0.037566   
C100     C      0.450730000000     0.345520000000     0.043950000000    -0.00704638 
C101     C      0.377650000000     0.346310000000     0.040530000000     0.0781368  
C102     C      0.325610000000     0.319850000000     0.041730000000    -0.183839   
C103     C      0.651070000000     0.810790000000     0.305670000000    -0.00975385 
C104     C      0.736560000000     0.841130000000     0.307100000000    -0.0379772  
C105     C      0.646850000000     0.776830000000     0.278280000000    -0.00818529 
C106     C      0.729540000000     0.807460000000     0.278550000000     0.0794531  
C107     C      0.772870000000     0.822970000000     0.257750000000    -0.181819   
C108     C      0.743380000000     0.929060000000     0.028980000000    -0.00805349 
C109     C      0.662230000000     0.905560000000     0.026190000000    -0.0337655  
C110     C      0.737890000000     0.908040000000     0.063720000000    -0.00808906 
C111     C      0.652080000000     0.881260000000     0.060510000000     0.0757471  
C112     C      0.618870000000     0.891640000000     0.079820000000    -0.184364   
C113     C      0.749400000000     0.716070000000     0.145380000000    -0.0109805  
C114     C      0.819640000000     0.794350000000     0.142360000000    -0.0360315  
C115     C      0.723440000000     0.734990000000     0.125250000000    -0.00951133 
C116     C      0.795080000000     0.809730000000     0.118350000000     0.0798027  
C117     C      0.818940000000     0.862580000000     0.114990000000    -0.176936   
C118     C      0.561450000000     0.906490000000     0.182690000000    -0.00851859 
C119     C      0.632330000000     0.983620000000     0.180410000000    -0.0370412  
C120     C      0.582700000000     0.891450000000     0.210020000000    -0.0067928  
C121     C      0.653890000000     0.967380000000     0.207360000000     0.0766401  
C122     C      0.705940000000     0.995180000000     0.205070000000    -0.18051    
C123     C      0.083270000000     0.605560000000     0.354680000000    -0.00863698 
C124     C      0.000200000000     0.570370000000     0.351130000000    -0.0363007  
C125     C      0.080380000000     0.585190000000     0.389460000000    -0.00936181 
C126     C      0.992990000000     0.547750000000     0.386190000000     0.0748512  
C127     C      0.956290000000     0.553470000000     0.404780000000    -0.181641   
C128     C      0.082920000000     0.514490000000     0.110160000000    -0.010905   
C129     C      0.996590000000     0.462200000000     0.108450000000    -0.0363005  
C130     C      0.083730000000     0.488150000000     0.141360000000    -0.00750297 
C131     C      0.000620000000     0.438920000000     0.140520000000     0.0766856  
C132     C      0.955870000000     0.415140000000     0.160330000000    -0.179222   
C133     C      0.939450000000     0.568680000000     0.054250000000    -0.00862211 
C134     C      0.015860000000     0.639280000000     0.058930000000    -0.0370896  
C135     C      0.917640000000     0.598190000000     0.050950000000    -0.00797147 
C136     C      0.993420000000     0.669830000000     0.060680000000     0.0764069  
C137     C      0.021500000000     0.710260000000     0.084940000000    -0.179219   
C138     C      0.303440000000     0.114420000000     0.415460000000    -0.011126   
C139     C      0.387680000000     0.159240000000     0.414260000000    -0.0321395  
C140     C      0.302630000000     0.149450000000     0.439900000000    -0.00773808 
C141     C      0.388170000000     0.195540000000     0.437820000000     0.0762275  
C142     C      0.433520000000     0.221210000000     0.956810000000    -0.177487   
C143     C      0.296350000000     0.175700000000     0.170840000000    -0.0102175  
C144     C      0.382460000000     0.220650000000     0.171800000000    -0.0359292  
C145     C      0.296140000000     0.208800000000     0.197220000000    -0.00534694 
C146     C      0.379930000000     0.254930000000     0.196080000000     0.0760522  
C147     C      0.424890000000     0.282990000000     0.215160000000    -0.178119   
C148     C      0.398420000000     0.046130000000     0.254490000000    -0.0112347  
C149     C      0.465950000000     0.124330000000     0.239420000000    -0.0374867  
C150     C      0.372740000000     0.073030000000     0.254370000000    -0.00655834 
C151     C      0.449780000000     0.143540000000     0.267670000000     0.0806891  
C152     C      0.469010000000     0.140120000000     0.301720000000    -0.180643   
C153     C      0.081040000000     0.380590000000     0.470830000000    -0.0109489  
C154     C      0.156280000000     0.454130000000     0.466090000000    -0.0368654  
C155     C      0.058290000000     0.404680000000     0.453110000000    -0.0085796  
C156     C      0.133530000000     0.474900000000     0.445090000000     0.078958   
C157     C      0.162500000000     0.527810000000     0.443270000000    -0.177809   
C158     C      0.301300000000     0.295240000000     0.397540000000    -0.00969279 
C159     C      0.226230000000     0.222960000000     0.394190000000    -0.0362648  
C160     C      0.307530000000     0.293180000000     0.359580000000    -0.00893124 
C161     C      0.231040000000     0.222680000000     0.355880000000     0.0758001  
C162     C      0.199660000000     0.174090000000     0.341800000000    -0.176047   
C163     C      0.446280000000     0.500970000000     0.389520000000    -0.00842663 
C164     C      0.472760000000     0.442170000000     0.385370000000    -0.0357136  
C165     C      0.431080000000     0.478960000000     0.424000000000    -0.00654432 
C166     C      0.489710000000     0.453530000000     0.422020000000     0.077126   
C167     C      0.479260000000     0.409230000000     0.440790000000    -0.18467    
C168     C      0.542030000000     0.603730000000     0.174040000000    -0.0104061  
C169     C      0.566170000000     0.543020000000     0.168020000000    -0.0359716  
C170     C      0.528720000000     0.595620000000     0.137040000000    -0.00482927 
C171     C      0.586250000000     0.567460000000     0.134520000000     0.0796712  
C172     C      0.633420000000     0.610270000000     0.138290000000    -0.184235   
C173     C      0.952900000000     0.231850000000     0.420790000000    -0.010805   
C174     C      0.902070000000     0.264690000000     0.417120000000    -0.0322605  
C175     C      0.921990000000     0.196650000000     0.446900000000    -0.00579001 
C176     C      0.869620000000     0.230300000000     0.443030000000     0.0752283  
C177     C      0.844530000000     0.251100000000     0.961840000000    -0.177235   
C178     C      0.808960000000     0.139590000000     0.206620000000    -0.00765814 
C179     C      0.882980000000     0.139250000000     0.197660000000    -0.04       
C180     C      0.802330000000     0.126150000000     0.169740000000    -0.00815329 
C181     C      0.889540000000     0.167170000000     0.165400000000     0.0881831  
C182     C      0.919040000000     0.220410000000     0.172000000000    -0.233199   
C183     C      0.183320000000     0.382710000000     0.321750000000    -0.0104252  
C184     C      0.128500000000     0.296150000000     0.324160000000    -0.0361753  
C185     C      0.150180000000     0.387070000000     0.297810000000    -0.0089002  
C186     C      0.097130000000     0.303090000000     0.300300000000     0.0769002  
C187     C      0.065000000000     0.258930000000     0.280810000000    -0.172857   
C188     C      0.247530000000     0.382850000000     0.083080000000    -0.00833769 
C189     C      0.212790000000     0.298100000000     0.086380000000    -0.0336984  
C190     C      0.232770000000     0.380040000000     0.046580000000    -0.0100299  
C191     C      0.193060000000     0.291350000000     0.050740000000     0.0737216  
C192     C      0.195100000000     0.250800000000     0.034000000000    -0.179894   
C193     C      0.002170000000     0.215410000000     0.108150000000    -0.0125658  
C194     C      0.972150000000     0.265640000000     0.131420000000    -0.0607488  
C195     C      0.025490000000     0.225700000000     0.142560000000    -0.00763645 
C196     C      0.021230000000     0.299530000000     0.143010000000     0.0865987  
C197     C      0.045780000000     0.336010000000     0.115270000000    -0.17941    
C198     C      0.354590000000     0.401390000000     0.252370000000    -0.00887428 
C199     C      0.348850000000     0.471650000000     0.261790000000    -0.0342829  
C200     C      0.320140000000     0.386550000000     0.223790000000    -0.00984757 
C201     C      0.314960000000     0.458980000000     0.232700000000     0.0736609  
C202     C      0.282790000000     0.477750000000     0.241370000000    -0.173174   
C203     C      0.539970000000     0.973200000000     0.322360000000    -0.00686643 
C204     C      0.593080000000     0.057360000000     0.318580000000    -0.0338614  
C205     C      0.517980000000     0.979370000000     0.353520000000    -0.00810958 
C206     C      0.572950000000     0.066370000000     0.350410000000     0.0743627  
C207     C      0.611620000000     0.107390000000     0.369490000000    -0.176996   
C208     C      0.502390000000     0.978760000000     0.083280000000    -0.0100909  
C209     C      0.530430000000     0.064600000000     0.082600000000    -0.0369986  
C210     C      0.459800000000     0.971090000000     0.102190000000    -0.00879109 
C211     C      0.486950000000     0.054690000000     0.100920000000     0.0816371  
C212     C      0.491960000000     0.096690000000     0.120360000000    -0.182961   
C213     C      0.710600000000     0.061930000000     0.018470000000    -0.0111003  
C214     C      0.714740000000     0.139360000000     0.014130000000    -0.0368002  
C215     C      0.690070000000     0.050430000000     0.982890000000    -0.00867529 
C216     C      0.701310000000     0.128930000000     0.977320000000     0.0777045  
C217     C      0.685960000000     0.161320000000     0.962390000000    -0.175963   
C218     C      0.235170000000     0.858360000000     0.288410000000    -0.0104403  
C219     C      0.203410000000     0.912910000000     0.291130000000    -0.0375738  
C220     C      0.267840000000     0.889000000000     0.260810000000    -0.00822108 
C221     C      0.236920000000     0.941760000000     0.263510000000     0.0794691  
C222     C      0.221610000000     0.971370000000     0.244130000000    -0.180463   
C223     C      0.188640000000     0.812210000000     0.019540000000    -0.0105767  
C224     C      0.152880000000     0.863230000000     0.019180000000    -0.0355938  
C225     C      0.156120000000     0.784150000000     0.047910000000    -0.0059386  
C226     C      0.118860000000     0.831210000000     0.045710000000     0.0742961  
C227     C      0.097520000000     0.855760000000     0.064520000000    -0.177947   
C228     C      0.376950000000     0.918980000000     0.457400000000    -0.00923749 
C229     C      0.383750000000     0.996790000000     0.457570000000    -0.0366242  
C230     C      0.353120000000     0.908670000000     0.423640000000    -0.00724642 
C231     C      0.356230000000     0.984770000000     0.424640000000     0.0773499  
C232     C      0.331630000000     0.012610000000     0.421790000000    -0.181709   
C233     C      0.864190000000     0.741220000000     0.493720000000    -0.0111488  
C234     C      0.807410000000     0.654870000000     0.495950000000    -0.0375568  
C235     C      0.834100000000     0.745960000000     0.466970000000    -0.00832642 
C236     C      0.778770000000     0.662770000000     0.470060000000     0.0794133  
C237     C      0.746270000000     0.618530000000     0.450820000000    -0.181689   
C238     C      0.917400000000     0.731620000000     0.219640000000    -0.0112239  
C239     C      0.870440000000     0.643670000000     0.220010000000    -0.0355981  
C240     C      0.933480000000     0.729280000000     0.255120000000    -0.00754164 
C241     C      0.891850000000     0.644150000000     0.254070000000     0.0751729  
C242     C      0.862260000000     0.598180000000     0.272420000000    -0.177997   
C243     C      0.661020000000     0.565980000000     0.303840000000    -0.0101172  
C244     C      0.656510000000     0.638120000000     0.316770000000    -0.0372858  
C245     C      0.699390000000     0.585720000000     0.329280000000    -0.0058347  
C246     C      0.708770000000     0.663750000000     0.312740000000     0.0791835  
C247     C      0.722640000000     0.677090000000     0.276000000000    -0.18306    
C248     C      0.003070000000     0.799950000000     0.399000000000    -0.0101363  
C249     C      0.996050000000     0.722680000000     0.406240000000    -0.0340226  
C250     C      0.043400000000     0.814450000000     0.375840000000    -0.00658376 
C251     C      0.038710000000     0.737930000000     0.384360000000     0.0751724  
C252     C      0.062160000000     0.710620000000     0.394710000000    -0.179511   
C253     C      0.822890000000     0.698390000000     0.917240000000     0.476323   
C254     C      0.882520000000     0.688160000000     0.802660000000     0.474056   
C255     C      0.931550000000     0.729640000000     0.883900000000     0.4754     
C256     C      0.772230000000     0.656510000000     0.836940000000     0.473173   
C257     C      0.211890000000     0.876520000000     0.842380000000     0.471834   
C258     C      0.181210000000     0.846950000000     0.966980000000     0.470414   
C259     C      0.112700000000     0.814200000000     0.892680000000     0.480731   
C260     C      0.281560000000     0.908970000000     0.915840000000     0.480028   
C261     C      0.529550000000     0.023750000000     0.530730000000     0.477836   
C262     C      0.544920000000     0.023860000000     0.904830000000     0.48172    
C263     C      0.622880000000     0.059230000000     0.472560000000     0.480706   
C264     C      0.452410000000     0.988650000000     0.962890000000     0.475007   
C265     C      0.138010000000     0.341560000000     0.747100000000     0.477529   
C266     C      0.199690000000     0.340330000000     0.631740000000     0.4717     
C267     C      0.248380000000     0.384460000000     0.712770000000     0.475635   
C268     C      0.088450000000     0.297870000000     0.665620000000     0.47392    
C269     C      0.840890000000     0.157090000000     0.617520000000     0.48476    
C270     C      0.883840000000     0.201520000000     0.497140000000     0.483879   
C271     C      0.939300000000     0.219930000000     0.580940000000     0.474658   
C272     C      0.779130000000     0.134240000000     0.537350000000     0.475607   
C273     C      0.483590000000     0.495490000000     0.838770000000     0.475063   
C274     C      0.530870000000     0.549360000000     0.719590000000     0.474258   
C275     C      0.589780000000     0.566480000000     0.796250000000     0.471696   
C276     C      0.423870000000     0.476870000000     0.762830000000     0.471744   
C277     C      0.170640000000     0.338930000000     0.874520000000     0.471429   
C278     C      0.209170000000     0.333360000000     0.996630000000     0.473376   
C279     C      0.231420000000     0.293720000000     0.917750000000     0.47229    
C280     C      0.150480000000     0.379390000000     0.952660000000     0.474401   
C281     C      0.343560000000     0.153010000000     0.863780000000     0.476237   
C282     C      0.338330000000     0.213630000000     0.748690000000     0.480692   
C283     C      0.301320000000     0.223830000000     0.832260000000     0.47908    
C284     C      0.378640000000     0.141860000000     0.781830000000     0.474849   
C285     C      0.034430000000     0.554060000000     0.939310000000     0.467189   
C286     C      0.040200000000     0.499970000000     0.557530000000     0.466114   
C287     C      0.069080000000     0.479610000000     0.972960000000     0.479936   
C288     C      0.004460000000     0.572780000000     0.524410000000     0.469287   
C289     C      0.690800000000     0.880320000000     0.612730000000     0.474596   
C290     C      0.689710000000     0.815880000000     0.727840000000     0.478076   
C291     C      0.726450000000     0.806510000000     0.644790000000     0.481701   
C292     C      0.652960000000     0.892490000000     0.693970000000     0.4795     
C293     C      0.891060000000     0.687550000000     0.667450000000     0.466748   
C294     C      0.850070000000     0.696780000000     0.546370000000     0.469042   
C295     C      0.823600000000     0.725130000000     0.627370000000     0.476121   
C296     C      0.920030000000     0.659730000000     0.584850000000     0.477447   
C297     C      0.485590000000     0.014520000000     0.653880000000     0.483729   
C298     C      0.542010000000     0.015790000000     0.771130000000     0.477405   
C299     C      0.557930000000     0.977590000000     0.692590000000     0.474168   
C300     C      0.469380000000     0.053120000000     0.732550000000     0.472711   
C301     C      0.345220000000     0.177690000000     0.492570000000     0.480834   
C302     C      0.340820000000     0.191970000000     0.618560000000     0.474426   
C303     C      0.379620000000     0.271370000000     0.549360000000     0.477995   
C304     C      0.307000000000     0.097720000000     0.560760000000     0.480099   
C305     C      0.486970000000     0.499690000000     0.969580000000     0.478775   
C306     C      0.542980000000     0.566800000000     0.584820000000     0.477043   
C307     C      0.561590000000     0.615070000000     0.001400000000     0.472644   
C308     C      0.470960000000     0.455230000000     0.551770000000     0.473979   
C309     C      0.228430000000     0.895330000000     0.711460000000     0.47831    
C310     C      0.159320000000     0.828720000000     0.598060000000     0.47617    
C311     C      0.150780000000     0.782420000000     0.681730000000     0.47955    
C312     C      0.235600000000     0.940760000000     0.628530000000     0.473597   
C313     C      0.041010000000     0.490150000000     0.690650000000     0.473597   
C314     C      0.042540000000     0.559990000000     0.804290000000     0.467497   
C315     C      0.072680000000     0.603460000000     0.719070000000     0.474617   
C316     C      0.011740000000     0.448370000000     0.775510000000     0.480571   
C317     C      0.862360000000     0.157600000000     0.752690000000     0.47625    
C318     C      0.911020000000     0.224260000000     0.868680000000     0.478559   
C319     C      0.927770000000     0.269840000000     0.786440000000     0.47636    
C320     C      0.842790000000     0.109090000000     0.835750000000     0.479684   
C321     C      0.698480000000     0.888470000000     0.978710000000     0.472671   
C322     C      0.694690000000     0.839710000000     0.857920000000     0.470729   
C323     C      0.651520000000     0.778710000000     0.934810000000     0.477172   
C324     C      0.742580000000     0.947550000000     0.902040000000     0.47259    
C325     C      0.747620000000     0.019930000000     0.881100000000    -0.0100886  
C326     C      0.817860000000     0.018050000000     0.895970000000    -0.0352464  
C327     C      0.768280000000     0.040600000000     0.846970000000    -0.00764888 
C328     C      0.838540000000     0.037360000000     0.861330000000     0.0753321  
C329     C      0.890700000000     0.062460000000     0.863950000000    -0.177413   
C330     C      0.999480000000     0.340240000000     0.769510000000    -0.00796188 
C331     C      0.925740000000     0.340290000000     0.772600000000    -0.0356954  
C332     C      0.021230000000     0.382810000000     0.792820000000    -0.0110574  
C333     C      0.946050000000     0.377150000000     0.799710000000     0.0804056  
C334     C      0.918590000000     0.401740000000     0.805490000000    -0.176974   
C335     C      0.137930000000     0.672510000000     0.694500000000    -0.00854192 
C336     C      0.060360000000     0.663600000000     0.692630000000    -0.0359663  
C337     C      0.156610000000     0.720240000000     0.709500000000    -0.00680118 
C338     C      0.079960000000     0.713330000000     0.706000000000     0.0755495  
C339     C      0.050460000000     0.733320000000     0.693540000000    -0.17943    
C340     C      0.566640000000     0.688620000000     0.983930000000    -0.0106263  
C341     C      0.635030000000     0.678590000000     0.980250000000    -0.0374241  
C342     C      0.577650000000     0.710690000000     0.949040000000    -0.00832247 
C343     C      0.644890000000     0.700260000000     0.945110000000     0.0779467  
C344     C      0.695030000000     0.719480000000     0.935640000000    -0.180199   
C345     C      0.232840000000     0.008690000000     0.607750000000    -0.00958102 
C346     C      0.305030000000     0.004910000000     0.602530000000    -0.0383277  
C347     C      0.237910000000     0.023680000000     0.571200000000    -0.00747135 
C348     C      0.310220000000     0.023470000000     0.566470000000     0.078921   
C349     C      0.359930000000     0.047630000000     0.554750000000    -0.180819   
C350     C      0.468020000000     0.383460000000     0.570260000000    -0.00863899 
C351     C      0.396730000000     0.386640000000     0.565910000000    -0.0376359  
C352     C      0.450730000000     0.345520000000     0.543950000000    -0.00705277 
C353     C      0.377650000000     0.346310000000     0.540530000000     0.0781464  
C354     C      0.325610000000     0.319850000000     0.541730000000    -0.183844   
C355     C      0.651070000000     0.810790000000     0.805670000000    -0.00973186 
C356     C      0.736560000000     0.841130000000     0.807100000000    -0.0379954  
C357     C      0.646850000000     0.776830000000     0.778280000000    -0.00824969 
C358     C      0.729540000000     0.807460000000     0.778550000000     0.0795064  
C359     C      0.772870000000     0.822970000000     0.757750000000    -0.181841   
C360     C      0.743380000000     0.929060000000     0.528980000000    -0.0080383  
C361     C      0.662230000000     0.905560000000     0.526190000000    -0.0337531  
C362     C      0.737890000000     0.908040000000     0.563720000000    -0.00809599 
C363     C      0.652080000000     0.881260000000     0.560510000000     0.0757409  
C364     C      0.618870000000     0.891640000000     0.579820000000    -0.18436    
C365     C      0.749400000000     0.716070000000     0.645380000000    -0.010977   
C366     C      0.819640000000     0.794350000000     0.642370000000    -0.0360097  
C367     C      0.723440000000     0.734990000000     0.625250000000    -0.00951609 
C368     C      0.795080000000     0.809730000000     0.618350000000     0.0797864  
C369     C      0.818930000000     0.862580000000     0.614990000000    -0.176911   
C370     C      0.561450000000     0.906490000000     0.682690000000    -0.0084981  
C371     C      0.632330000000     0.983620000000     0.680410000000    -0.0370412  
C372     C      0.582700000000     0.891450000000     0.710020000000    -0.00676958 
C373     C      0.653890000000     0.967380000000     0.707360000000     0.0766409  
C374     C      0.705940000000     0.995180000000     0.705070000000    -0.180511   
C375     C      0.083270000000     0.605560000000     0.854690000000    -0.00867161 
C376     C      0.000200000000     0.570370000000     0.851130000000    -0.0362916  
C377     C      0.080380000000     0.585190000000     0.889470000000    -0.009338   
C378     C      0.992990000000     0.547750000000     0.886190000000     0.0748291  
C379     C      0.956280000000     0.553470000000     0.904780000000    -0.18171    
C380     C      0.082920000000     0.514490000000     0.610160000000    -0.0109251  
C381     C      0.996590000000     0.462200000000     0.608450000000    -0.0363119  
C382     C      0.083730000000     0.488150000000     0.641360000000    -0.00749662 
C383     C      0.000620000000     0.438920000000     0.640520000000     0.076687   
C384     C      0.955870000000     0.415140000000     0.660330000000    -0.179222   
C385     C      0.939450000000     0.568680000000     0.554250000000    -0.00862013 
C386     C      0.015860000000     0.639280000000     0.558930000000    -0.0370901  
C387     C      0.917640000000     0.598190000000     0.550950000000    -0.00797982 
C388     C      0.993420000000     0.669830000000     0.560680000000     0.0764022  
C389     C      0.021500000000     0.710260000000     0.584940000000    -0.179215   
C390     C      0.303440000000     0.114420000000     0.915460000000    -0.0111259  
C391     C      0.387680000000     0.159240000000     0.914260000000    -0.0321717  
C392     C      0.302630000000     0.149450000000     0.939900000000    -0.00773217 
C393     C      0.388170000000     0.195540000000     0.937810000000     0.0761909  
C394     C      0.433520000000     0.221210000000     0.456810000000    -0.17752    
C395     C      0.296350000000     0.175700000000     0.670840000000    -0.0102186  
C396     C      0.382460000000     0.220650000000     0.671800000000    -0.0359341  
C397     C      0.296140000000     0.208800000000     0.697220000000    -0.00533997 
C398     C      0.379940000000     0.254930000000     0.696080000000     0.0760457  
C399     C      0.424890000000     0.282990000000     0.715160000000    -0.178133   
C400     C      0.398420000000     0.046130000000     0.754490000000    -0.0112199  
C401     C      0.465950000000     0.124330000000     0.739420000000    -0.0374855  
C402     C      0.372740000000     0.073030000000     0.754370000000    -0.00656472 
C403     C      0.449780000000     0.143540000000     0.767670000000     0.0806875  
C404     C      0.469010000000     0.140130000000     0.801720000000    -0.180607   
C405     C      0.081040000000     0.380590000000     0.970830000000    -0.0109466  
C406     C      0.156280000000     0.454130000000     0.966090000000    -0.0368618  
C407     C      0.058290000000     0.404680000000     0.953110000000    -0.00858217 
C408     C      0.133530000000     0.474900000000     0.945090000000     0.0789539  
C409     C      0.162500000000     0.527810000000     0.943270000000    -0.177802   
C410     C      0.301300000000     0.295240000000     0.897540000000    -0.00969162 
C411     C      0.226230000000     0.222960000000     0.894190000000    -0.036268   
C412     C      0.307530000000     0.293180000000     0.859580000000    -0.00892885 
C413     C      0.231040000000     0.222680000000     0.855880000000     0.0758143  
C414     C      0.199660000000     0.174090000000     0.841800000000    -0.176093   
C415     C      0.446280000000     0.500960000000     0.889520000000    -0.00833999 
C416     C      0.472760000000     0.442170000000     0.885370000000    -0.0357198  
C417     C      0.431080000000     0.478960000000     0.924000000000    -0.00659443 
C418     C      0.489710000000     0.453530000000     0.922010000000     0.0770648  
C419     C      0.479260000000     0.409230000000     0.940800000000    -0.184724   
C420     C      0.542030000000     0.603730000000     0.674040000000    -0.0104028  
C421     C      0.566170000000     0.543020000000     0.668020000000    -0.0359657  
C422     C      0.528720000000     0.595620000000     0.637040000000    -0.00483066 
C423     C      0.586250000000     0.567460000000     0.634520000000     0.0796689  
C424     C      0.633420000000     0.610270000000     0.638290000000    -0.184233   
C425     C      0.952900000000     0.231850000000     0.920790000000    -0.0107865  
C426     C      0.902070000000     0.264690000000     0.917120000000    -0.0322454  
C427     C      0.921990000000     0.196650000000     0.946900000000    -0.00580125 
C428     C      0.869610000000     0.230300000000     0.943030000000     0.0752105  
C429     C      0.844520000000     0.251100000000     0.461840000000    -0.177302   
C430     C      0.808960000000     0.139590000000     0.706620000000    -0.00773058 
C431     C      0.882980000000     0.139250000000     0.697660000000    -0.0399453  
C432     C      0.802320000000     0.126150000000     0.669740000000    -0.00817203 
C433     C      0.889540000000     0.167170000000     0.665400000000     0.0881597  
C434     C      0.919040000000     0.220410000000     0.672000000000    -0.233164   
C435     C      0.183320000000     0.382710000000     0.821750000000    -0.0103934  
C436     C      0.128500000000     0.296150000000     0.824160000000    -0.0361931  
C437     C      0.150180000000     0.387070000000     0.797820000000    -0.0089242  
C438     C      0.097130000000     0.303090000000     0.800300000000     0.0769102  
C439     C      0.065000000000     0.258930000000     0.780810000000    -0.172863   
C440     C      0.247530000000     0.382850000000     0.583080000000    -0.00833635 
C441     C      0.212790000000     0.298090000000     0.586380000000    -0.0338011  
C442     C      0.232770000000     0.380040000000     0.546590000000    -0.0100328  
C443     C      0.193060000000     0.291350000000     0.550740000000     0.073771   
C444     C      0.195100000000     0.250800000000     0.534010000000    -0.179874   
C445     C      0.002170000000     0.215410000000     0.608150000000    -0.0125595  
C446     C      0.972150000000     0.265640000000     0.631410000000    -0.0606444  
C447     C      0.025490000000     0.225700000000     0.642560000000    -0.00764584 
C448     C      0.021230000000     0.299530000000     0.643010000000     0.0865506  
C449     C      0.045780000000     0.336010000000     0.615270000000    -0.17939    
C450     C      0.354590000000     0.401390000000     0.752370000000    -0.00888976 
C451     C      0.348850000000     0.471650000000     0.761780000000    -0.0342277  
C452     C      0.320140000000     0.386550000000     0.723790000000    -0.00979453 
C453     C      0.314960000000     0.458980000000     0.732700000000     0.0736003  
C454     C      0.282790000000     0.477750000000     0.741370000000    -0.173153   
C455     C      0.539970000000     0.973200000000     0.822360000000    -0.00687961 
C456     C      0.593080000000     0.057360000000     0.818580000000    -0.033882   
C457     C      0.517980000000     0.979370000000     0.853530000000    -0.0080709  
C458     C      0.572950000000     0.066370000000     0.850410000000     0.0743723  
C459     C      0.611620000000     0.107390000000     0.869490000000    -0.177003   
C460     C      0.502390000000     0.978760000000     0.583280000000    -0.0100917  
C461     C      0.530440000000     0.064600000000     0.582600000000    -0.0369892  
C462     C      0.459800000000     0.971090000000     0.602190000000    -0.00878985 
C463     C      0.486950000000     0.054690000000     0.600920000000     0.081635   
C464     C      0.491960000000     0.096690000000     0.620360000000    -0.182961   
C465     C      0.710600000000     0.061930000000     0.518470000000    -0.011161   
C466     C      0.714740000000     0.139360000000     0.514130000000    -0.0368657  
C467     C      0.690070000000     0.050430000000     0.482890000000    -0.00860603 
C468     C      0.701310000000     0.128930000000     0.477320000000     0.0777709  
C469     C      0.685960000000     0.161320000000     0.462390000000    -0.175998   
C470     C      0.235170000000     0.858360000000     0.788410000000    -0.0104388  
C471     C      0.203410000000     0.912910000000     0.791130000000    -0.0375731  
C472     C      0.267840000000     0.889000000000     0.760810000000    -0.00822167 
C473     C      0.236920000000     0.941760000000     0.763510000000     0.0794724  
C474     C      0.221610000000     0.971370000000     0.744130000000    -0.180461   
C475     C      0.188640000000     0.812210000000     0.519540000000    -0.0105898  
C476     C      0.152880000000     0.863230000000     0.519180000000    -0.0356141  
C477     C      0.156120000000     0.784150000000     0.547910000000    -0.0059359  
C478     C      0.118860000000     0.831210000000     0.545710000000     0.074316   
C479     C      0.097520000000     0.855760000000     0.564520000000    -0.178014   
C480     C      0.376950000000     0.918980000000     0.957400000000    -0.00924994 
C481     C      0.383750000000     0.996790000000     0.957570000000    -0.0366676  
C482     C      0.353120000000     0.908670000000     0.923640000000    -0.00722029 
C483     C      0.356230000000     0.984770000000     0.924640000000     0.0773876  
C484     C      0.331630000000     0.012610000000     0.921790000000    -0.181821   
C485     C      0.864190000000     0.741220000000     0.993720000000    -0.0112649  
C486     C      0.807410000000     0.654870000000     0.995950000000    -0.037666   
C487     C      0.834100000000     0.745960000000     0.966970000000    -0.0082845  
C488     C      0.778780000000     0.662770000000     0.970060000000     0.0794363  
C489     C      0.746270000000     0.618530000000     0.950820000000    -0.181665   
C490     C      0.917400000000     0.731620000000     0.719640000000    -0.0112259  
C491     C      0.870440000000     0.643670000000     0.720020000000    -0.0356589  
C492     C      0.933480000000     0.729280000000     0.755120000000    -0.00753509 
C493     C      0.891850000000     0.644150000000     0.754070000000     0.0752308  
C494     C      0.862260000000     0.598180000000     0.772420000000    -0.178098   
C495     C      0.661020000000     0.565980000000     0.803850000000    -0.0100957  
C496     C      0.656510000000     0.638120000000     0.816770000000    -0.0372959  
C497     C      0.699390000000     0.585720000000     0.829280000000    -0.00582487 
C498     C      0.708770000000     0.663750000000     0.812740000000     0.0792109  
C499     C      0.722640000000     0.677090000000     0.776010000000    -0.182971   
C500     C      0.003070000000     0.799950000000     0.899000000000    -0.010107   
C501     C      0.996050000000     0.722680000000     0.906240000000    -0.0340261  
C502     C      0.043390000000     0.814450000000     0.875840000000    -0.00664469 
C503     C      0.038710000000     0.737930000000     0.884360000000     0.0751722  
C504     C      0.062160000000     0.710620000000     0.894710000000    -0.179508   
H1       H      0.903850000000     0.094840000000     0.378630000000     0.067496   
H2       H      0.828750000000     0.047460000000     0.413620000000     0.0393833  
H3       H      0.755560000000     0.048680000000     0.398750000000     0.0358987  
H4       H      0.754450000000     0.062720000000     0.338440000000     0.0380621  
H5       H      0.831260000000     0.996130000000     0.405780000000     0.0435656  
H6       H      0.901650000000     0.040170000000     0.376730000000     0.051046   
H7       H      0.828020000000     0.007210000000     0.344480000000     0.0162231  
H8       H      0.710140000000     0.998900000000     0.378640000000     0.0391936  
H9       H      0.756440000000     0.011780000000     0.328710000000     0.0330203  
H10      H      0.906290000000     0.069450000000     0.338650000000     0.0684985  
H11      H      0.907730000000     0.410190000000     0.281550000000     0.0653364  
H12      H      0.931850000000     0.357280000000     0.247660000000     0.0401337  
H13      H      0.006640000000     0.352710000000     0.243180000000     0.0331724  
H14      H      0.057330000000     0.405380000000     0.285630000000     0.0415107  
H15      H      0.888420000000     0.318810000000     0.275910000000     0.0435046  
H16      H      0.887170000000     0.378520000000     0.319600000000     0.0516048  
H17      H      0.943760000000     0.359140000000     0.323760000000     0.0176379  
H18      H      0.015710000000     0.319050000000     0.273950000000     0.0398336  
H19      H      0.020520000000     0.370620000000     0.318860000000     0.0357343  
H20      H      0.938420000000     0.433380000000     0.320740000000     0.068348   
H21      H      0.054410000000     0.739720000000     0.166100000000     0.0693211  
H22      H      0.059540000000     0.664430000000     0.164770000000     0.0393918  
H23      H      0.141770000000     0.676030000000     0.166810000000     0.0341802  
H24      H      0.193290000000     0.741300000000     0.203440000000     0.0356875  
H25      H      0.024890000000     0.642000000000     0.201610000000     0.0452737  
H26      H      0.014060000000     0.708750000000     0.198690000000     0.0592086  
H27      H      0.076540000000     0.710600000000     0.233770000000     0.0171254  
H28      H      0.158350000000     0.657170000000     0.203540000000     0.0364206  
H29      H      0.153930000000     0.716710000000     0.237250000000     0.0327899  
H30      H      0.058880000000     0.765410000000     0.207320000000     0.0715036  
H31      H      0.718080000000     0.745190000000     0.454260000000     0.0734703  
H32      H      0.655180000000     0.706070000000     0.998850000000     0.0430517  
H33      H      0.581660000000     0.716630000000     0.502920000000     0.0350997  
H34      H      0.564610000000     0.735130000000     0.447430000000     0.0366457  
H35      H      0.646360000000     0.652720000000     0.481600000000     0.045894   
H36      H      0.702840000000     0.690990000000     0.435210000000     0.0592292  
H37      H      0.625080000000     0.671350000000     0.427370000000     0.0166126  
H38      H      0.529240000000     0.669930000000     0.487380000000     0.0369957  
H39      H      0.559030000000     0.683090000000     0.430190000000     0.0326423  
H40      H      0.701840000000     0.734580000000     0.410070000000     0.0734009  
H41      H      0.382830000000     0.074030000000     0.073040000000     0.0707811  
H42      H      0.325770000000     0.034360000000     0.119540000000     0.0425563  
H43      H      0.248110000000     0.039970000000     0.123860000000     0.0345706  
H44      H      0.219470000000     0.042800000000     0.066990000000     0.0355421  
H45      H      0.318570000000     0.980850000000     0.103980000000     0.0474056  
H46      H      0.371240000000     0.021850000000     0.052460000000     0.0583057  
H47      H      0.291830000000     0.992570000000     0.050110000000     0.0153756  
H48      H      0.196080000000     0.988360000000     0.113720000000     0.0344384  
H49      H      0.221580000000     0.992300000000     0.055180000000     0.0300133  
H50      H      0.363290000000     0.063350000000     0.029650000000     0.069829   
H51      H      0.313300000000     0.302540000000     0.066320000000     0.0734208  
H52      H      0.385910000000     0.372220000000     0.091550000000     0.041366   
H53      H      0.457910000000     0.367070000000     0.095400000000     0.0327267  
H54      H      0.467610000000     0.324880000000     0.048020000000     0.03504    
H55      H      0.382530000000     0.409560000000     0.060670000000     0.045789   
H56      H      0.312500000000     0.344010000000     0.038180000000     0.0639132  
H57      H      0.387150000000     0.362400000000     0.015220000000     0.0153182  
H58      H      0.505680000000     0.403800000000     0.569550000000     0.0349389  
H59      H      0.461460000000     0.361870000000     0.018840000000     0.0304033  
H60      H      0.311700000000     0.294600000000     0.020870000000     0.0736113  
H61      H      0.788400000000     0.859550000000     0.249900000000     0.0693079  
H62      H      0.749340000000     0.876120000000     0.296380000000     0.0432245  
H63      H      0.650880000000     0.840680000000     0.293690000000     0.0378922  
H64      H      0.616500000000     0.767940000000     0.262660000000     0.0346722  
H65      H      0.763140000000     0.843130000000     0.324380000000     0.0425315  
H66      H      0.798370000000     0.819730000000     0.273110000000     0.0523136  
H67      H      0.722230000000     0.774620000000     0.290900000000     0.0123284  
H68      H      0.620740000000     0.793400000000     0.322170000000     0.0349427  
H69      H      0.641880000000     0.744710000000     0.290410000000     0.0311261  
H70      H      0.765350000000     0.800630000000     0.235340000000     0.066      
H71      H      0.636470000000     0.928080000000     0.088400000000     0.0653395  
H72      H      0.671080000000     0.942100000000     0.029770000000     0.0385138  
H73      H      0.752650000000     0.965750000000     0.032110000000     0.0291212  
H74      H      0.766870000000     0.932710000000     0.079510000000     0.0331364  
H75      H      0.631110000000     0.888440000000     0.010470000000     0.0422098  
H76      H      0.589950000000     0.885710000000     0.063540000000     0.0560621  
H77      H      0.634710000000     0.843460000000     0.055870000000     0.0220837  
H78      H      0.771950000000     0.928720000000     0.015740000000     0.0340835  
H79      H      0.741080000000     0.876700000000     0.061220000000     0.0319989  
H80      H      0.604160000000     0.868840000000     0.101890000000     0.0727451  
H81      H      0.828890000000     0.880000000000     0.139740000000     0.0659967  
H82      H      0.814730000000     0.802810000000     0.168440000000     0.0405207  
H83      H      0.743200000000     0.718420000000     0.172470000000     0.0314172  
H84      H      0.687700000000     0.717880000000     0.134020000000     0.0368657  
H85      H      0.856660000000     0.813420000000     0.137140000000     0.0438698  
H86      H      0.850630000000     0.874970000000     0.100270000000     0.0519644  
H87      H      0.797210000000     0.796920000000     0.093010000000     0.0167421  
H88      H      0.735490000000     0.679090000000     0.139190000000     0.0360142  
H89      H      0.723250000000     0.725810000000     0.098460000000     0.0337436  
H90      H      0.797050000000     0.872940000000     0.101290000000     0.0668492  
H91      H      0.718020000000     0.991850000000     0.179930000000     0.0712826  
H92      H      0.641790000000     0.976790000000     0.155240000000     0.0391442  
H93      H      0.568680000000     0.896140000000     0.158010000000     0.0327149  
H94      H      0.567140000000     0.853340000000     0.209710000000     0.0358376  
H95      H      0.646090000000     0.021390000000     0.182650000000     0.0449955  
H96      H      0.717820000000     0.032280000000     0.209190000000     0.0563831  
H97      H      0.644810000000     0.976030000000     0.232060000000     0.016762   
H98      H      0.524030000000     0.888200000000     0.185950000000     0.0362299  
H99      H      0.574520000000     0.900880000000     0.234730000000     0.0329615  
H100     H      0.721410000000     0.984370000000     0.225030000000     0.0738305  
H101     H      0.970630000000     0.589440000000     0.413900000000     0.0624828  
H102     H      0.003180000000     0.604870000000     0.353830000000     0.0367818  
H103     H      0.087020000000     0.640270000000     0.357940000000     0.0270722  
H104     H      0.107780000000     0.612230000000     0.405150000000     0.0330755  
H105     H      0.969790000000     0.548920000000     0.335440000000     0.0420156  
H106     H      0.927320000000     0.545450000000     0.387850000000     0.0509775  
H107     H      0.979510000000     0.510220000000     0.382290000000     0.0192696  
H108     H      0.114250000000     0.610400000000     0.341720000000     0.034721   
H109     H      0.088370000000     0.556920000000     0.386950000000     0.0327058  
H110     H      0.941910000000     0.529540000000     0.426280000000     0.0709492  
H111     H      0.942530000000     0.438860000000     0.164980000000     0.0686557  
H112     H      0.984320000000     0.486300000000     0.115260000000     0.0420985  
H113     H      0.086440000000     0.547890000000     0.118270000000     0.0376263  
H114     H      0.114150000000     0.511090000000     0.156560000000     0.0328787  
H115     H      0.970470000000     0.435350000000     0.091870000000     0.0419161  
H116     H      0.929820000000     0.385500000000     0.145680000000     0.0513319  
H117     H      0.006430000000     0.410660000000     0.131900000000     0.0114974  
H118     H      0.112970000000     0.522450000000     0.094450000000     0.034312   
H119     H      0.086950000000     0.458180000000     0.133120000000     0.0271216  
H120     H      0.960590000000     0.401510000000     0.184460000000     0.0673023  
H121     H      0.011680000000     0.699380000000     0.111360000000     0.0681196  
H122     H      0.023060000000     0.632350000000     0.084840000000     0.0404632  
H123     H      0.938920000000     0.559440000000     0.081090000000     0.0332224  
H124     H      0.881960000000     0.577430000000     0.059640000000     0.0358333  
H125     H      0.049020000000     0.658830000000     0.045790000000     0.044251   
H126     H      0.058360000000     0.722730000000     0.082380000000     0.0609614  
H127     H      0.996390000000     0.684690000000     0.035240000000     0.0169766  
H128     H      0.918570000000     0.536230000000     0.540060000000     0.0352912  
H129     H      0.916490000000     0.605700000000     0.023920000000     0.0323798  
H130     H      0.017540000000     0.740410000000     0.078960000000     0.0721674  
H131     H      0.440240000000     0.196960000000     0.971340000000     0.0664663  
H132     H      0.389320000000     0.132400000000     0.429610000000     0.0349432  
H133     H      0.303840000000     0.086520000000     0.430290000000     0.0291215  
H134     H      0.272870000000     0.130820000000     0.456770000000     0.03396    
H135     H      0.417740000000     0.174830000000     0.397370000000     0.0384974  
H136     H      0.461730000000     0.239220000000     0.438610000000     0.0503823  
H137     H      0.386720000000     0.221840000000     0.421600000000     0.0200937  
H138     H      0.272210000000     0.098910000000     0.399840000000     0.032149   
H139     H      0.297930000000     0.175000000000     0.425240000000     0.0336748  
H140     H      0.434030000000     0.248030000000     0.973470000000     0.0672908  
H141     H      0.435000000000     0.260190000000     0.228210000000     0.0672475  
H142     H      0.386690000000     0.194760000000     0.186430000000     0.0415561  
H143     H      0.291890000000     0.144450000000     0.184010000000     0.0357813  
H144     H      0.265430000000     0.190540000000     0.213250000000     0.0320677  
H145     H      0.412520000000     0.239460000000     0.155190000000     0.0416613  
H146     H      0.452340000000     0.304470000000     0.197170000000     0.0517257  
H147     H      0.375770000000     0.280140000000     0.180430000000     0.01612    
H148     H      0.266720000000     0.164530000000     0.153930000000     0.0353554  
H149     H      0.294000000000     0.236840000000     0.183930000000     0.030683   
H150     H      0.422330000000     0.306840000000     0.233180000000     0.0689304  
H151     H      0.456730000000     0.103700000000     0.308710000000     0.0707518  
H152     H      0.503660000000     0.142480000000     0.239530000000     0.0424831  
H153     H      0.399220000000     0.034460000000     0.280430000000     0.0358934  
H154     H      0.340130000000     0.052450000000     0.267960000000     0.0375165  
H155     H      0.455690000000     0.132450000000     0.215040000000     0.0375871  
H156     H      0.506670000000     0.158790000000     0.300900000000     0.0568912  
H157     H      0.463760000000     0.180860000000     0.262330000000     0.0137279  
H158     H      0.379220000000     0.014470000000     0.239070000000     0.0392897  
H159     H      0.364160000000     0.076590000000     0.228060000000     0.034129   
H160     H      0.458530000000     0.156070000000     0.321600000000     0.0680951  
H161     H      0.173250000000     0.543400000000     0.468550000000     0.0677318  
H162     H      0.156040000000     0.463460000000     0.492820000000     0.0416166  
H163     H      0.077330000000     0.382950000000     0.498320000000     0.0352654  
H164     H      0.023290000000     0.390380000000     0.463040000000     0.0389023  
H165     H      0.192290000000     0.469190000000     0.458330000000     0.0448583  
H166     H      0.193880000000     0.537580000000     0.428750000000     0.0522945  
H167     H      0.132140000000     0.462580000000     0.418930000000     0.0167437  
H168     H      0.062780000000     0.343480000000     0.463920000000     0.0393868  
H169     H      0.055520000000     0.396110000000     0.425980000000     0.0347608  
H170     H      0.143880000000     0.542420000000     0.429930000000     0.0679646  
H171     H      0.207280000000     0.148370000000     0.353070000000     0.0664618  
H172     H      0.240460000000     0.202550000000     0.405560000000     0.0385756  
H173     H      0.317440000000     0.277490000000     0.410220000000     0.0341586  
H174     H      0.344280000000     0.309110000000     0.353930000000     0.0386286  
H175     H      0.189830000000     0.206330000000     0.401300000000     0.0425138  
H176     H      0.163850000000     0.163170000000     0.347960000000     0.0502442  
H177     H      0.217980000000     0.244780000000     0.345600000000     0.0165678  
H178     H      0.319270000000     0.331740000000     0.405990000000     0.0378554  
H179     H      0.295280000000     0.314630000000     0.347090000000     0.0354562  
H180     H      0.201980000000     0.174130000000     0.314040000000     0.067768   
H181     H      0.442020000000     0.386180000000     0.443400000000     0.0639136  
H182     H      0.438630000000     0.410660000000     0.384650000000     0.0376946  
H183     H      0.416460000000     0.496950000000     0.375230000000     0.0288007  
H184     H      0.402250000000     0.443200000000     0.420960000000     0.0288565  
H185     H      0.496220000000     0.434560000000     0.370950000000     0.0412814  
H186     H      0.493600000000     0.390600000000     0.427030000000     0.0541626  
H187     H      0.527240000000     0.476210000000     0.421390000000     0.0219462  
H188     H      0.469980000000     0.538600000000     0.392590000000     0.0414658  
H189     H      0.418660000000     0.498680000000     0.438610000000     0.0346976  
H190     H      0.494530000000     0.417360000000     0.466210000000     0.0704054  
H191     H      0.633550000000     0.636120000000     0.155550000000     0.0682329  
H192     H      0.592510000000     0.540610000000     0.183000000000     0.03826    
H193     H      0.574630000000     0.636320000000     0.177170000000     0.0312004  
H194     H      0.533390000000     0.628040000000     0.125710000000     0.0283944  
H195     H      0.539420000000     0.506900000000     0.162630000000     0.0451596  
H196     H      0.657730000000     0.600120000000     0.148090000000     0.0571586  
H197     H      0.591540000000     0.542600000000     0.119410000000     0.0169708  
H198     H      0.516110000000     0.608560000000     0.187530000000     0.0356623  
H199     H      0.491870000000     0.569920000000     0.135430000000     0.0399134  
H200     H      0.645840000000     0.626710000000     0.113430000000     0.0686657  
H201     H      0.868490000000     0.281440000000     0.976960000000     0.0674338  
H202     H      0.927910000000     0.296170000000     0.430410000000     0.0384253  
H203     H      0.978740000000     0.263300000000     0.434070000000     0.0336933  
H204     H      0.943470000000     0.190470000000     0.464810000000     0.0317007  
H205     H      0.883530000000     0.275190000000     0.399470000000     0.0407732  
H206     H      0.827630000000     0.262730000000     0.443620000000     0.0501397  
H207     H      0.843210000000     0.200350000000     0.428700000000     0.0193901  
H208     H      0.970830000000     0.217420000000     0.406300000000     0.0352356  
H209     H      0.899140000000     0.163540000000     0.434000000000     0.0345879  
H210     H      0.817250000000     0.224720000000     0.977900000000     0.067378   
H211     H      0.898850000000     0.236470000000     0.163580000000     0.0743471  
H212     H      0.916400000000     0.149900000000     0.209420000000     0.0433727  
H213     H      0.809820000000     0.173080000000     0.209380000000     0.0374487  
H214     H      0.774010000000     0.129910000000     0.159300000000     0.0259078  
H215     H      0.868080000000     0.102330000000     0.190750000000     0.038214   
H216     H      0.909390000000     0.230150000000     0.195920000000     0.067585   
H217     H      0.909000000000     0.158240000000     0.147450000000     0.0127709  
H218     H      0.779400000000     0.113700000000     0.221310000000     0.0300221  
H219     H      0.792490000000     0.089210000000     0.167420000000     0.0300237  
H220     H      0.947620000000     0.225970000000     0.188670000000     0.0673361  
H221     H      0.083220000000     0.242240000000     0.269970000000     0.0654159  
H222     H      0.149150000000     0.285200000000     0.309320000000     0.0437666  
H223     H      0.210420000000     0.382060000000     0.306610000000     0.035633   
H224     H      0.169500000000     0.417340000000     0.281140000000     0.0319613  
H225     H      0.107560000000     0.267720000000     0.341870000000     0.0430798  
H226     H      0.038700000000     0.233680000000     0.298070000000     0.0401037  
H227     H      0.075070000000     0.310990000000     0.316330000000     0.0176331  
H228     H      0.199580000000     0.413730000000     0.338090000000     0.0347815  
H229     H      0.126260000000     0.393190000000     0.312970000000     0.0324963  
H230     H      0.047490000000     0.266720000000     0.260530000000     0.0646661  
H231     H      0.229750000000     0.262190000000     0.524560000000     0.059753   
H232     H      0.246840000000     0.301270000000     0.085250000000     0.0364166  
H233     H      0.282380000000     0.387800000000     0.083240000000     0.0288888  
H234     H      0.261600000000     0.407760000000     0.032330000000     0.0355055  
H235     H      0.190450000000     0.267110000000     0.101660000000     0.0416045  
H236     H      0.185660000000     0.222160000000     0.052070000000     0.0486076  
H237     H      0.156690000000     0.281340000000     0.053220000000     0.0212165  
H238     H      0.249400000000     0.413660000000     0.095150000000     0.0352992  
H239     H      0.204910000000     0.388280000000     0.045730000000     0.034315   
H240     H      0.170700000000     0.235950000000     0.512990000000     0.0700433  
H241     H      0.054450000000     0.320780000000     0.093780000000     0.0744304  
H242     H      0.957490000000     0.287010000000     0.122620000000     0.0487097  
H243     H      0.028460000000     0.229520000000     0.088200000000     0.0340123  
H244     H      0.050710000000     0.213820000000     0.142230000000     0.034474   
H245     H      0.946310000000     0.242490000000     0.151950000000     0.0899545  
H246     H      0.024160000000     0.349820000000     0.105950000000     0.0626497  
H247     H      0.019630000000     0.317860000000     0.165760000000     0.0104531  
H248     H      0.982490000000     0.177430000000     0.104560000000     0.0356892  
H249     H      0.999830000000     0.205220000000     0.161950000000     0.0299545  
H250     H      0.077210000000     0.366210000000     0.124610000000     0.0740976  
H251     H      0.255170000000     0.453730000000     0.258360000000     0.0652564  
H252     H      0.329590000000     0.457720000000     0.285530000000     0.0385407  
H253     H      0.336000000000     0.384580000000     0.275820000000     0.0350089  
H254     H      0.299610000000     0.348280000000     0.223780000000     0.0399411  
H255     H      0.368700000000     0.509820000000     0.264210000000     0.0435256  
H256     H      0.301360000000     0.511800000000     0.254040000000     0.0504223  
H257     H      0.334800000000     0.477640000000     0.210090000000     0.0185358  
H258     H      0.378370000000     0.388490000000     0.247120000000     0.0394938  
H259     H      0.339190000000     0.396830000000     0.199750000000     0.0347126  
H260     H      0.268480000000     0.484160000000     0.218360000000     0.0670883  
H261     H      0.632160000000     0.096040000000     0.384020000000     0.0633196  
H262     H      0.621930000000     0.052390000000     0.325890000000     0.0380303  
H263     H      0.568170000000     0.967640000000     0.330390000000     0.0318385  
H264     H      0.507050000000     0.948780000000     0.369950000000     0.0355363  
H265     H      0.606530000000     0.087900000000     0.301800000000     0.0417935  
H266     H      0.634560000000     0.134840000000     0.351810000000     0.0497431  
H267     H      0.548060000000     0.076710000000     0.342190000000     0.0175321  
H268     H      0.514960000000     0.942000000000     0.308460000000     0.035569   
H269     H      0.486730000000     0.979660000000     0.345770000000     0.0347605  
H270     H      0.598110000000     0.123950000000     0.386390000000     0.0668022  
H271     H      0.523790000000     0.113980000000     0.135150000000     0.0692755  
H272     H      0.557790000000     0.073480000000     0.101320000000     0.046572   
H273     H      0.527630000000     0.980780000000     0.101910000000     0.0358098  
H274     H      0.447040000000     0.939910000000     0.118280000000     0.0339646  
H275     H      0.541680000000     0.095010000000     0.065960000000     0.0426275  
H276     H      0.492840000000     0.122470000000     0.102400000000     0.0506343  
H277     H      0.460760000000     0.046860000000     0.081310000000     0.0127724  
H278     H      0.493100000000     0.948450000000     0.066950000000     0.0366624  
H279     H      0.433000000000     0.964990000000     0.083610000000     0.0314871  
H280     H      0.462460000000     0.086110000000     0.137280000000     0.0652654  
H281     H      0.661660000000     0.164710000000     0.979050000000     0.0651725  
H282     H      0.683730000000     0.128600000000     0.029450000000     0.0427362  
H283     H      0.682130000000     0.046140000000     0.036690000000     0.0347553  
H284     H      0.665870000000     0.012810000000     0.481040000000     0.0401962  
H285     H      0.737240000000     0.177130000000     0.017370000000     0.0418873  
H286     H      0.715890000000     0.196380000000     0.959490000000     0.0486995  
H287     H      0.732720000000     0.136770000000     0.963310000000     0.014068   
H288     H      0.731710000000     0.045570000000     0.022410000000     0.0393801  
H289     H      0.718050000000     0.058690000000     0.464860000000     0.0340811  
H290     H      0.671080000000     0.149320000000     0.937100000000     0.0644524  
H291     H      0.185540000000     0.951070000000     0.236350000000     0.068178   
H292     H      0.169850000000     0.889680000000     0.279500000000     0.0429513  
H293     H      0.205570000000     0.828550000000     0.276380000000     0.0364204  
H294     H      0.276300000000     0.867580000000     0.244340000000     0.0343017  
H295     H      0.198910000000     0.936230000000     0.308530000000     0.043303   
H296     H      0.224960000000     0.999730000000     0.260490000000     0.0502583  
H297     H      0.269000000000     0.966490000000     0.276480000000     0.0147319  
H298     H      0.252800000000     0.844700000000     0.304120000000     0.0355035  
H299     H      0.299750000000     0.915700000000     0.272810000000     0.0319706  
H300     H      0.243480000000     0.987160000000     0.221810000000     0.0675275  
H301     H      0.123860000000     0.888180000000     0.076410000000     0.0673475  
H302     H      0.180920000000     0.893780000000     0.031860000000     0.0422976  
H303     H      0.222000000000     0.836740000000     0.030850000000     0.036857   
H304     H      0.172250000000     0.769520000000     0.064290000000     0.0328925  
H305     H      0.135410000000     0.875640000000     0.002070000000     0.0421816  
H306     H      0.078320000000     0.864980000000     0.046610000000     0.0504563  
H307     H      0.090750000000     0.801950000000     0.031920000000     0.0142088  
H308     H      0.194010000000     0.788530000000     0.003160000000     0.0358577  
H309     H      0.125650000000     0.754630000000     0.036450000000     0.0283495  
H310     H      0.072960000000     0.832420000000     0.083540000000     0.0640244  
H311     H      0.307010000000     0.004260000000     0.442570000000     0.0727325  
H312     H      0.359910000000     0.988080000000     0.978990000000     0.0388646  
H313     H      0.350820000000     0.906470000000     0.477500000000     0.0335274  
H314     H      0.331880000000     0.870700000000     0.420930000000     0.0373347  
H315     H      0.408210000000     0.034440000000     0.458630000000     0.0434527  
H316     H      0.356760000000     0.049960000000     0.423290000000     0.0590972  
H317     H      0.381630000000     0.997110000000     0.404000000000     0.0163785  
H318     H      0.395530000000     0.899670000000     0.459540000000     0.0366068  
H319     H      0.379270000000     0.920950000000     0.403560000000     0.0332083  
H320     H      0.314610000000     0.006780000000     0.397070000000     0.0752889  
H321     H      0.763640000000     0.600070000000     0.441650000000     0.0689035  
H322     H      0.827840000000     0.642060000000     0.482900000000     0.0441804  
H323     H      0.892890000000     0.740660000000     0.480860000000     0.0367057  
H324     H      0.855720000000     0.775390000000     0.450180000000     0.032255   
H325     H      0.784270000000     0.627430000000     0.513580000000     0.0432671  
H326     H      0.718520000000     0.594640000000     0.467750000000     0.0517816  
H327     H      0.756820000000     0.672570000000     0.484470000000     0.012559   
H328     H      0.878760000000     0.772250000000     0.510060000000     0.0351766  
H329     H      0.809710000000     0.753760000000     0.479810000000     0.0287555  
H330     H      0.730680000000     0.626750000000     0.429390000000     0.0647638  
H331     H      0.828510000000     0.593640000000     0.278890000000     0.0678756  
H332     H      0.835730000000     0.638140000000     0.224160000000     0.0427487  
H333     H      0.891400000000     0.742370000000     0.221620000000     0.0343693  
H334     H      0.940420000000     0.760760000000     0.269230000000     0.034468   
H335     H      0.866970000000     0.614120000000     0.204900000000     0.0398386  
H336     H      0.856680000000     0.568950000000     0.256070000000     0.0498454  
H337     H      0.924910000000     0.646200000000     0.248640000000     0.0142022  
H338     H      0.946510000000     0.759200000000     0.205540000000     0.0335785  
H339     H      0.966380000000     0.729950000000     0.252810000000     0.0285596  
H340     H      0.879840000000     0.596020000000     0.295200000000     0.0690451  
H341     H      0.709750000000     0.646150000000     0.259820000000     0.0693758  
H342     H      0.642290000000     0.657440000000     0.303670000000     0.0447832  
H343     H      0.675150000000     0.569220000000     0.278260000000     0.031907   
H344     H      0.719130000000     0.567700000000     0.326100000000     0.0331333  
H345     H      0.648440000000     0.637960000000     0.343780000000     0.0414836  
H346     H      0.709010000000     0.698950000000     0.266540000000     0.0622918  
H347     H      0.722630000000     0.696550000000     0.327100000000     0.0169305  
H348     H      0.639450000000     0.528490000000     0.309040000000     0.0351057  
H349     H      0.684810000000     0.577950000000     0.354980000000     0.0320097  
H350     H      0.760160000000     0.697130000000     0.273790000000     0.0709617  
H351     H      0.076940000000     0.720490000000     0.420240000000     0.0729833  
H352     H      0.006670000000     0.729640000000     0.432970000000     0.0394699  
H353     H      0.015930000000     0.809930000000     0.425050000000     0.0334644  
H354     H      0.065060000000     0.852560000000     0.376630000000     0.0359287  
H355     H      0.972700000000     0.684960000000     0.403500000000     0.0439324  
H356     H      0.037200000000     0.673100000000     0.394980000000     0.0581673  
H357     H      0.026430000000     0.727490000000     0.358220000000     0.0168596  
H358     H      0.985020000000     0.818740000000     0.392150000000     0.0366271  
H359     H      0.030480000000     0.805150000000     0.349750000000     0.0326847  
H360     H      0.088470000000     0.715550000000     0.376120000000     0.0730138  
H361     H      0.903850000000     0.094840000000     0.878630000000     0.0674831  
H362     H      0.828750000000     0.047460000000     0.913620000000     0.0393749  
H363     H      0.755550000000     0.048680000000     0.898750000000     0.0358989  
H364     H      0.754450000000     0.062720000000     0.838440000000     0.0380488  
H365     H      0.831260000000     0.996130000000     0.905780000000     0.0435543  
H366     H      0.901650000000     0.040170000000     0.876730000000     0.0510304  
H367     H      0.828020000000     0.007210000000     0.844480000000     0.0162121  
H368     H      0.710140000000     0.998900000000     0.878640000000     0.0391915  
H369     H      0.756440000000     0.011780000000     0.828710000000     0.0329997  
H370     H      0.906300000000     0.069450000000     0.838650000000     0.0684658  
H371     H      0.907730000000     0.410190000000     0.781560000000     0.0653875  
H372     H      0.931850000000     0.357280000000     0.747660000000     0.0401339  
H373     H      0.006640000000     0.352710000000     0.743180000000     0.0331729  
H374     H      0.057330000000     0.405380000000     0.785630000000     0.0415052  
H375     H      0.888420000000     0.318810000000     0.775910000000     0.0435063  
H376     H      0.887170000000     0.378520000000     0.819600000000     0.0516198  
H377     H      0.943760000000     0.359140000000     0.823760000000     0.0176309  
H378     H      0.015710000000     0.319050000000     0.773950000000     0.0398346  
H379     H      0.020520000000     0.370620000000     0.818860000000     0.0357246  
H380     H      0.938410000000     0.433380000000     0.820740000000     0.068369   
H381     H      0.054410000000     0.739720000000     0.666100000000     0.0692589  
H382     H      0.059540000000     0.664430000000     0.664770000000     0.0393914  
H383     H      0.141770000000     0.676030000000     0.666810000000     0.0341803  
H384     H      0.193290000000     0.741300000000     0.703440000000     0.0356798  
H385     H      0.024890000000     0.642000000000     0.701610000000     0.0452739  
H386     H      0.014060000000     0.708750000000     0.698690000000     0.059208   
H387     H      0.076540000000     0.710600000000     0.733770000000     0.0171245  
H388     H      0.158350000000     0.657170000000     0.703540000000     0.0364183  
H389     H      0.153930000000     0.716710000000     0.737250000000     0.0327901  
H390     H      0.058880000000     0.765410000000     0.707320000000     0.0714802  
H391     H      0.718080000000     0.745190000000     0.954260000000     0.0734663  
H392     H      0.655180000000     0.706070000000     0.498850000000     0.0430804  
H393     H      0.581660000000     0.716630000000     0.002920000000     0.0351568  
H394     H      0.564610000000     0.735130000000     0.947430000000     0.0366362  
H395     H      0.646360000000     0.652720000000     0.981600000000     0.0458782  
H396     H      0.702840000000     0.690990000000     0.935210000000     0.0592278  
H397     H      0.625080000000     0.671350000000     0.927370000000     0.0166136  
H398     H      0.529240000000     0.669930000000     0.987380000000     0.0369906  
H399     H      0.559030000000     0.683090000000     0.930190000000     0.0326457  
H400     H      0.701840000000     0.734580000000     0.910070000000     0.0734011  
H401     H      0.382830000000     0.074030000000     0.573040000000     0.070782   
H402     H      0.325770000000     0.034370000000     0.619540000000     0.0425434  
H403     H      0.248110000000     0.039970000000     0.623870000000     0.0345471  
H404     H      0.219470000000     0.042800000000     0.567000000000     0.0355529  
H405     H      0.318570000000     0.980850000000     0.603980000000     0.0474046  
H406     H      0.371240000000     0.021850000000     0.552460000000     0.0582982  
H407     H      0.291830000000     0.992570000000     0.550110000000     0.0153612  
H408     H      0.196080000000     0.988360000000     0.613720000000     0.0344312  
H409     H      0.221580000000     0.992300000000     0.555180000000     0.0300318  
H410     H      0.363290000000     0.063350000000     0.529650000000     0.0698187  
H411     H      0.313300000000     0.302540000000     0.566320000000     0.0734211  
H412     H      0.385910000000     0.372220000000     0.591540000000     0.0414068  
H413     H      0.457910000000     0.367070000000     0.595410000000     0.0327138  
H414     H      0.467610000000     0.324880000000     0.548020000000     0.0350341  
H415     H      0.382530000000     0.409560000000     0.560670000000     0.0458006  
H416     H      0.312500000000     0.344010000000     0.538180000000     0.0639094  
H417     H      0.387150000000     0.362400000000     0.515220000000     0.0152971  
H418     H      0.505680000000     0.403800000000     0.069550000000     0.0349449  
H419     H      0.461460000000     0.361870000000     0.518840000000     0.0303842  
H420     H      0.311700000000     0.294600000000     0.520870000000     0.0736035  
H421     H      0.788400000000     0.859550000000     0.749900000000     0.0693053  
H422     H      0.749340000000     0.876120000000     0.796380000000     0.0432281  
H423     H      0.650880000000     0.840680000000     0.793690000000     0.0378868  
H424     H      0.616500000000     0.767940000000     0.762660000000     0.0346855  
H425     H      0.763140000000     0.843130000000     0.824380000000     0.042534   
H426     H      0.798370000000     0.819730000000     0.773110000000     0.0523184  
H427     H      0.722230000000     0.774620000000     0.790900000000     0.0123183  
H428     H      0.620740000000     0.793400000000     0.822170000000     0.034939   
H429     H      0.641880000000     0.744710000000     0.790400000000     0.0311489  
H430     H      0.765350000000     0.800630000000     0.735340000000     0.0660008  
H431     H      0.636470000000     0.928080000000     0.588400000000     0.0653365  
H432     H      0.671080000000     0.942100000000     0.529770000000     0.0384988  
H433     H      0.752650000000     0.965750000000     0.532110000000     0.0291065  
H434     H      0.766870000000     0.932710000000     0.579510000000     0.0331346  
H435     H      0.631110000000     0.888440000000     0.510470000000     0.0421822  
H436     H      0.589950000000     0.885710000000     0.563540000000     0.0560526  
H437     H      0.634710000000     0.843460000000     0.555870000000     0.0220766  
H438     H      0.771950000000     0.928720000000     0.515740000000     0.034053   
H439     H      0.741080000000     0.876700000000     0.561220000000     0.0319906  
H440     H      0.604160000000     0.868840000000     0.601890000000     0.0727421  
H441     H      0.828890000000     0.880000000000     0.639740000000     0.0659952  
H442     H      0.814730000000     0.802810000000     0.668450000000     0.0405141  
H443     H      0.743200000000     0.718420000000     0.672470000000     0.031417   
H444     H      0.687700000000     0.717880000000     0.634020000000     0.0368669  
H445     H      0.856660000000     0.813420000000     0.637140000000     0.0438634  
H446     H      0.850630000000     0.874970000000     0.600270000000     0.0519243  
H447     H      0.797210000000     0.796930000000     0.593010000000     0.0167329  
H448     H      0.735490000000     0.679090000000     0.639190000000     0.0360118  
H449     H      0.723250000000     0.725810000000     0.598460000000     0.0337383  
H450     H      0.797050000000     0.872940000000     0.601290000000     0.06687    
H451     H      0.718020000000     0.991850000000     0.679930000000     0.071284   
H452     H      0.641790000000     0.976790000000     0.655240000000     0.0391437  
H453     H      0.568680000000     0.896140000000     0.658000000000     0.032699   
H454     H      0.567140000000     0.853340000000     0.709710000000     0.0358321  
H455     H      0.646090000000     0.021390000000     0.682650000000     0.0449945  
H456     H      0.717820000000     0.032280000000     0.709190000000     0.0563834  
H457     H      0.644810000000     0.976030000000     0.732060000000     0.0167603  
H458     H      0.524030000000     0.888200000000     0.685950000000     0.0362204  
H459     H      0.574520000000     0.900880000000     0.734740000000     0.0329438  
H460     H      0.721410000000     0.984370000000     0.725030000000     0.0738329  
H461     H      0.970630000000     0.589440000000     0.913900000000     0.0624968  
H462     H      0.003180000000     0.604870000000     0.853830000000     0.0367795  
H463     H      0.087020000000     0.640270000000     0.857930000000     0.0270829  
H464     H      0.107780000000     0.612230000000     0.905150000000     0.0330659  
H465     H      0.969790000000     0.548920000000     0.835440000000     0.042011   
H466     H      0.927320000000     0.545450000000     0.887850000000     0.0510184  
H467     H      0.979510000000     0.510220000000     0.882290000000     0.0192724  
H468     H      0.114250000000     0.610400000000     0.841720000000     0.0347226  
H469     H      0.088370000000     0.556920000000     0.886960000000     0.032696   
H470     H      0.941910000000     0.529540000000     0.926280000000     0.0709614  
H471     H      0.942530000000     0.438860000000     0.664980000000     0.0686527  
H472     H      0.984320000000     0.486300000000     0.615260000000     0.0421003  
H473     H      0.086440000000     0.547890000000     0.618270000000     0.0376292  
H474     H      0.114150000000     0.511090000000     0.656560000000     0.0328756  
H475     H      0.970470000000     0.435350000000     0.591870000000     0.0419166  
H476     H      0.929820000000     0.385500000000     0.645680000000     0.0513292  
H477     H      0.006430000000     0.410660000000     0.631900000000     0.0114949  
H478     H      0.112970000000     0.522460000000     0.594450000000     0.0343156  
H479     H      0.086950000000     0.458180000000     0.633120000000     0.0271184  
H480     H      0.960590000000     0.401510000000     0.684460000000     0.0673001  
H481     H      0.011680000000     0.699380000000     0.611360000000     0.0681145  
H482     H      0.023060000000     0.632350000000     0.584840000000     0.0404631  
H483     H      0.938920000000     0.559440000000     0.581090000000     0.0332188  
H484     H      0.881960000000     0.577430000000     0.559640000000     0.0358407  
H485     H      0.049020000000     0.658830000000     0.545790000000     0.0442468  
H486     H      0.058360000000     0.722730000000     0.582380000000     0.0609623  
H487     H      0.996380000000     0.684690000000     0.535240000000     0.0169778  
H488     H      0.918570000000     0.536230000000     0.040060000000     0.0353002  
H489     H      0.916490000000     0.605700000000     0.523920000000     0.0323729  
H490     H      0.017540000000     0.740410000000     0.578960000000     0.0721703  
H491     H      0.440240000000     0.196960000000     0.471340000000     0.0664959  
H492     H      0.389310000000     0.132400000000     0.929610000000     0.0349562  
H493     H      0.303840000000     0.086520000000     0.930290000000     0.0291125  
H494     H      0.272870000000     0.130820000000     0.956770000000     0.0339351  
H495     H      0.417740000000     0.174830000000     0.897380000000     0.0385082  
H496     H      0.461730000000     0.239220000000     0.938610000000     0.0503694  
H497     H      0.386720000000     0.221840000000     0.921600000000     0.0200979  
H498     H      0.272210000000     0.098910000000     0.899840000000     0.0321458  
H499     H      0.297930000000     0.175000000000     0.925240000000     0.0336707  
H500     H      0.434030000000     0.248030000000     0.473470000000     0.0673184  
H501     H      0.435000000000     0.260190000000     0.728210000000     0.0672454  
H502     H      0.386690000000     0.194760000000     0.686430000000     0.0415556  
H503     H      0.291890000000     0.144450000000     0.684010000000     0.035782   
H504     H      0.265430000000     0.190540000000     0.713250000000     0.0320549  
H505     H      0.412520000000     0.239460000000     0.655190000000     0.0416607  
H506     H      0.452340000000     0.304470000000     0.697170000000     0.0517267  
H507     H      0.375770000000     0.280140000000     0.680430000000     0.0161297  
H508     H      0.266720000000     0.164530000000     0.653930000000     0.0353546  
H509     H      0.294000000000     0.236840000000     0.683930000000     0.0306803  
H510     H      0.422330000000     0.306840000000     0.733180000000     0.0689307  
H511     H      0.456740000000     0.103700000000     0.808710000000     0.0707022  
H512     H      0.503660000000     0.142480000000     0.739530000000     0.0424786  
H513     H      0.399220000000     0.034460000000     0.780430000000     0.0358904  
H514     H      0.340130000000     0.052450000000     0.767960000000     0.0375189  
H515     H      0.455690000000     0.132450000000     0.715040000000     0.037585   
H516     H      0.506670000000     0.158790000000     0.800890000000     0.0568805  
H517     H      0.463760000000     0.180860000000     0.762330000000     0.013723   
H518     H      0.379210000000     0.014470000000     0.739070000000     0.0392716  
H519     H      0.364160000000     0.076590000000     0.728060000000     0.0341286  
H520     H      0.458530000000     0.156070000000     0.821600000000     0.0681246  
H521     H      0.173250000000     0.543400000000     0.968550000000     0.0677179  
H522     H      0.156040000000     0.463460000000     0.992820000000     0.0416026  
H523     H      0.077330000000     0.382950000000     0.998320000000     0.0352506  
H524     H      0.023290000000     0.390380000000     0.963040000000     0.0388974  
H525     H      0.192290000000     0.469190000000     0.958330000000     0.0448517  
H526     H      0.193880000000     0.537580000000     0.928750000000     0.0522882  
H527     H      0.132140000000     0.462580000000     0.918930000000     0.0167444  
H528     H      0.062780000000     0.343480000000     0.963920000000     0.039381   
H529     H      0.055520000000     0.396110000000     0.925980000000     0.0347614  
H530     H      0.143880000000     0.542420000000     0.929930000000     0.0679588  
H531     H      0.207280000000     0.148370000000     0.853060000000     0.0664878  
H532     H      0.240460000000     0.202550000000     0.905560000000     0.0385726  
H533     H      0.317440000000     0.277490000000     0.910220000000     0.0341559  
H534     H      0.344280000000     0.309110000000     0.853930000000     0.0386311  
H535     H      0.189830000000     0.206330000000     0.901300000000     0.0425097  
H536     H      0.163850000000     0.163170000000     0.847960000000     0.0502524  
H537     H      0.217980000000     0.244780000000     0.845600000000     0.0165638  
H538     H      0.319270000000     0.331740000000     0.905990000000     0.0378504  
H539     H      0.295280000000     0.314630000000     0.847090000000     0.035454   
H540     H      0.201980000000     0.174130000000     0.814040000000     0.0677708  
H541     H      0.442020000000     0.386180000000     0.943400000000     0.0639192  
H542     H      0.438630000000     0.410660000000     0.884650000000     0.0376949  
H543     H      0.416460000000     0.496950000000     0.875230000000     0.0287805  
H544     H      0.402250000000     0.443200000000     0.920960000000     0.0288618  
H545     H      0.496220000000     0.434560000000     0.870950000000     0.0412783  
H546     H      0.493590000000     0.390600000000     0.927030000000     0.0541723  
H547     H      0.527240000000     0.476210000000     0.921390000000     0.021965   
H548     H      0.469980000000     0.538600000000     0.892590000000     0.0414489  
H549     H      0.418660000000     0.498680000000     0.938610000000     0.0347069  
H550     H      0.494530000000     0.417360000000     0.966210000000     0.0704484  
H551     H      0.633550000000     0.636120000000     0.655550000000     0.0682321  
H552     H      0.592510000000     0.540610000000     0.683000000000     0.0382592  
H553     H      0.574630000000     0.636320000000     0.677170000000     0.0312003  
H554     H      0.533390000000     0.628040000000     0.625710000000     0.0283925  
H555     H      0.539410000000     0.506900000000     0.662630000000     0.0451626  
H556     H      0.657730000000     0.600120000000     0.648090000000     0.0571566  
H557     H      0.591540000000     0.542600000000     0.619410000000     0.0169716  
H558     H      0.516110000000     0.608560000000     0.687530000000     0.0356641  
H559     H      0.491870000000     0.569920000000     0.635430000000     0.0399137  
H560     H      0.645840000000     0.626710000000     0.613430000000     0.0686618  
H561     H      0.868490000000     0.281440000000     0.476960000000     0.0674513  
H562     H      0.927910000000     0.296170000000     0.930410000000     0.0384207  
H563     H      0.978740000000     0.263300000000     0.934070000000     0.0336864  
H564     H      0.943470000000     0.190470000000     0.964810000000     0.0316894  
H565     H      0.883530000000     0.275190000000     0.899470000000     0.0407689  
H566     H      0.827630000000     0.262730000000     0.943610000000     0.050066   
H567     H      0.843200000000     0.200350000000     0.928700000000     0.019383   
H568     H      0.970830000000     0.217420000000     0.906300000000     0.0352389  
H569     H      0.899140000000     0.163540000000     0.934000000000     0.0345868  
H570     H      0.817250000000     0.224720000000     0.477910000000     0.0674087  
H571     H      0.898850000000     0.236470000000     0.663580000000     0.0743412  
H572     H      0.916400000000     0.149900000000     0.709420000000     0.0433633  
H573     H      0.809820000000     0.173070000000     0.709380000000     0.037473   
H574     H      0.774000000000     0.129910000000     0.659300000000     0.0259107  
H575     H      0.868080000000     0.102330000000     0.690750000000     0.0382036  
H576     H      0.909390000000     0.230150000000     0.695920000000     0.0675799  
H577     H      0.909000000000     0.158240000000     0.647450000000     0.0127754  
H578     H      0.779400000000     0.113700000000     0.721310000000     0.0300365  
H579     H      0.792490000000     0.089210000000     0.667420000000     0.0300337  
H580     H      0.947620000000     0.225970000000     0.688670000000     0.0673301  
H581     H      0.083220000000     0.242240000000     0.769970000000     0.0654179  
H582     H      0.149150000000     0.285200000000     0.809330000000     0.0437751  
H583     H      0.210420000000     0.382060000000     0.806600000000     0.0356208  
H584     H      0.169500000000     0.417340000000     0.781130000000     0.0319772  
H585     H      0.107560000000     0.267720000000     0.841870000000     0.0430863  
H586     H      0.038700000000     0.233680000000     0.798070000000     0.040107   
H587     H      0.075070000000     0.310990000000     0.816330000000     0.0176319  
H588     H      0.199580000000     0.413730000000     0.838090000000     0.0347795  
H589     H      0.126260000000     0.393190000000     0.812970000000     0.0325066  
H590     H      0.047490000000     0.266720000000     0.760530000000     0.0646666  
H591     H      0.229750000000     0.262190000000     0.024560000000     0.0597795  
H592     H      0.246840000000     0.301270000000     0.585250000000     0.0364516  
H593     H      0.282380000000     0.387800000000     0.583240000000     0.0288881  
H594     H      0.261600000000     0.407760000000     0.532330000000     0.0354878  
H595     H      0.190450000000     0.267110000000     0.601660000000     0.0416391  
H596     H      0.185660000000     0.222160000000     0.552070000000     0.0486279  
H597     H      0.156690000000     0.281340000000     0.553220000000     0.0211951  
H598     H      0.249400000000     0.413660000000     0.595150000000     0.0352963  
H599     H      0.204910000000     0.388280000000     0.545730000000     0.0342951  
H600     H      0.170700000000     0.235950000000     0.012990000000     0.0700991  
H601     H      0.054450000000     0.320780000000     0.593780000000     0.0744181  
H602     H      0.957490000000     0.287010000000     0.622610000000     0.0486885  
H603     H      0.028460000000     0.229520000000     0.588200000000     0.0340054  
H604     H      0.050710000000     0.213820000000     0.642240000000     0.0344793  
H605     H      0.946310000000     0.242490000000     0.651950000000     0.0899097  
H606     H      0.024160000000     0.349820000000     0.605950000000     0.0626382  
H607     H      0.019630000000     0.317860000000     0.665760000000     0.0104616  
H608     H      0.982490000000     0.177430000000     0.604560000000     0.0356845  
H609     H      0.999830000000     0.205220000000     0.661950000000     0.0299541  
H610     H      0.077210000000     0.366210000000     0.624610000000     0.0740914  
H611     H      0.255170000000     0.453730000000     0.758360000000     0.0652507  
H612     H      0.329590000000     0.457720000000     0.785530000000     0.03852    
H613     H      0.336000000000     0.384580000000     0.775820000000     0.0350122  
H614     H      0.299610000000     0.348280000000     0.723780000000     0.0399298  
H615     H      0.368700000000     0.509820000000     0.764210000000     0.0435123  
H616     H      0.301360000000     0.511800000000     0.754040000000     0.0504184  
H617     H      0.334800000000     0.477640000000     0.710090000000     0.0185486  
H618     H      0.378370000000     0.388490000000     0.747120000000     0.0394966  
H619     H      0.339190000000     0.396830000000     0.699750000000     0.0347003  
H620     H      0.268480000000     0.484160000000     0.718360000000     0.0670828  
H621     H      0.632160000000     0.096040000000     0.884020000000     0.0633204  
H622     H      0.621920000000     0.052390000000     0.825890000000     0.0380503  
H623     H      0.568170000000     0.967640000000     0.830390000000     0.0318419  
H624     H      0.507050000000     0.948780000000     0.869950000000     0.0355299  
H625     H      0.606520000000     0.087900000000     0.801790000000     0.0417964  
H626     H      0.634560000000     0.134840000000     0.851810000000     0.0497433  
H627     H      0.548060000000     0.076710000000     0.842190000000     0.0175245  
H628     H      0.514960000000     0.942000000000     0.808460000000     0.0355718  
H629     H      0.486730000000     0.979660000000     0.845770000000     0.03475    
H630     H      0.598110000000     0.123950000000     0.886390000000     0.0667991  
H631     H      0.523790000000     0.113980000000     0.635150000000     0.0692735  
H632     H      0.557790000000     0.073480000000     0.601320000000     0.0465708  
H633     H      0.527630000000     0.980780000000     0.601910000000     0.035805   
H634     H      0.447040000000     0.939910000000     0.618280000000     0.0339506  
H635     H      0.541680000000     0.095010000000     0.565960000000     0.0426161  
H636     H      0.492840000000     0.122470000000     0.602400000000     0.0506292  
H637     H      0.460750000000     0.046870000000     0.581310000000     0.0127664  
H638     H      0.493100000000     0.948450000000     0.566950000000     0.036654   
H639     H      0.433000000000     0.964990000000     0.583610000000     0.0314801  
H640     H      0.462460000000     0.086110000000     0.637280000000     0.0652655  
H641     H      0.661660000000     0.164710000000     0.479050000000     0.0651949  
H642     H      0.683730000000     0.128600000000     0.529450000000     0.0427346  
H643     H      0.682130000000     0.046140000000     0.536690000000     0.0347564  
H644     H      0.665860000000     0.012810000000     0.981040000000     0.0402042  
H645     H      0.737240000000     0.177130000000     0.517370000000     0.04188    
H646     H      0.715890000000     0.196380000000     0.459500000000     0.048722   
H647     H      0.732720000000     0.136770000000     0.463300000000     0.014066   
H648     H      0.731710000000     0.045570000000     0.522420000000     0.0393796  
H649     H      0.718050000000     0.058690000000     0.964860000000     0.0340873  
H650     H      0.671080000000     0.149320000000     0.437100000000     0.064463   
H651     H      0.185540000000     0.951070000000     0.736350000000     0.0681796  
H652     H      0.169850000000     0.889680000000     0.779500000000     0.0429573  
H653     H      0.205570000000     0.828550000000     0.776380000000     0.036419   
H654     H      0.276300000000     0.867580000000     0.744340000000     0.0342989  
H655     H      0.198910000000     0.936230000000     0.808530000000     0.0433039  
H656     H      0.224960000000     0.999730000000     0.760490000000     0.0502568  
H657     H      0.269000000000     0.966490000000     0.776480000000     0.0147306  
H658     H      0.252800000000     0.844700000000     0.804120000000     0.0355013  
H659     H      0.299750000000     0.915700000000     0.772810000000     0.0319694  
H660     H      0.243480000000     0.987160000000     0.721810000000     0.0675189  
H661     H      0.123860000000     0.888180000000     0.576410000000     0.067365   
H662     H      0.180920000000     0.893780000000     0.531860000000     0.0422997  
H663     H      0.222000000000     0.836740000000     0.530850000000     0.0368523  
H664     H      0.172250000000     0.769520000000     0.564290000000     0.032893   
H665     H      0.135410000000     0.875640000000     0.502070000000     0.0421711  
H666     H      0.078330000000     0.864980000000     0.546610000000     0.0504913  
H667     H      0.090750000000     0.801950000000     0.531920000000     0.014196   
H668     H      0.194010000000     0.788530000000     0.503160000000     0.0358446  
H669     H      0.125650000000     0.754630000000     0.536450000000     0.0283427  
H670     H      0.072960000000     0.832420000000     0.583540000000     0.0640414  
H671     H      0.307010000000     0.004260000000     0.942570000000     0.0727447  
H672     H      0.359910000000     0.988080000000     0.479000000000     0.0388592  
H673     H      0.350820000000     0.906470000000     0.977500000000     0.0335166  
H674     H      0.331880000000     0.870700000000     0.920930000000     0.0373225  
H675     H      0.408210000000     0.034440000000     0.958630000000     0.0434547  
H676     H      0.356760000000     0.049960000000     0.923290000000     0.0591179  
H677     H      0.381630000000     0.997110000000     0.904000000000     0.0163705  
H678     H      0.395530000000     0.899670000000     0.959530000000     0.0366013  
H679     H      0.379270000000     0.920950000000     0.903550000000     0.033193   
H680     H      0.314610000000     0.006780000000     0.897080000000     0.07535    
H681     H      0.763650000000     0.600070000000     0.941660000000     0.0688694  
H682     H      0.827840000000     0.642060000000     0.982900000000     0.0441808  
H683     H      0.892890000000     0.740660000000     0.980860000000     0.0367109  
H684     H      0.855730000000     0.775390000000     0.950180000000     0.0322407  
H685     H      0.784270000000     0.627420000000     0.013580000000     0.0433146  
H686     H      0.718520000000     0.594640000000     0.967750000000     0.0517622  
H687     H      0.756820000000     0.672570000000     0.984470000000     0.012553   
H688     H      0.878760000000     0.772250000000     0.010060000000     0.0352371  
H689     H      0.809710000000     0.753760000000     0.979810000000     0.0287344  
H690     H      0.730680000000     0.626750000000     0.929390000000     0.0647545  
H691     H      0.828510000000     0.593640000000     0.778890000000     0.0678988  
H692     H      0.835730000000     0.638140000000     0.724150000000     0.0427666  
H693     H      0.891400000000     0.742370000000     0.721620000000     0.0343702  
H694     H      0.940420000000     0.760760000000     0.769240000000     0.0344671  
H695     H      0.866970000000     0.614120000000     0.704900000000     0.0398417  
H696     H      0.856680000000     0.568950000000     0.756070000000     0.0498637  
H697     H      0.924910000000     0.646200000000     0.748640000000     0.0141886  
H698     H      0.946510000000     0.759200000000     0.705540000000     0.0335797  
H699     H      0.966380000000     0.729950000000     0.752810000000     0.0285589  
H700     H      0.879840000000     0.596020000000     0.795190000000     0.0690933  
H701     H      0.709750000000     0.646150000000     0.759820000000     0.0693262  
H702     H      0.642290000000     0.657440000000     0.803670000000     0.0447865  
H703     H      0.675150000000     0.569220000000     0.778260000000     0.0318987  
H704     H      0.719140000000     0.567700000000     0.826100000000     0.0331242  
H705     H      0.648440000000     0.637960000000     0.843780000000     0.0414866  
H706     H      0.709010000000     0.698950000000     0.766540000000     0.0622542  
H707     H      0.722630000000     0.696550000000     0.827100000000     0.0169255  
H708     H      0.639450000000     0.528490000000     0.809040000000     0.0350995  
H709     H      0.684810000000     0.577950000000     0.854980000000     0.0320047  
H710     H      0.760160000000     0.697130000000     0.773790000000     0.0709374  
H711     H      0.076940000000     0.720490000000     0.920240000000     0.0729827  
H712     H      0.006660000000     0.729640000000     0.932970000000     0.0394653  
H713     H      0.015930000000     0.809930000000     0.925050000000     0.033445   
H714     H      0.065060000000     0.852560000000     0.876630000000     0.0359492  
H715     H      0.972700000000     0.684960000000     0.903500000000     0.0439291  
H716     H      0.037200000000     0.673100000000     0.894980000000     0.0581632  
H717     H      0.026430000000     0.727490000000     0.858220000000     0.0168589  
H718     H      0.985020000000     0.818740000000     0.892150000000     0.0366143  
H719     H      0.030480000000     0.805150000000     0.849750000000     0.0327049  
H720     H      0.088470000000     0.715550000000     0.876120000000     0.0730064  
N1       N      0.818560000000     0.065000000000     0.348200000000    -0.190572   
N2       N      0.767970000000     0.993170000000     0.393680000000    -0.177462   
N3       N      0.994680000000     0.406750000000     0.291370000000    -0.191381   
N4       N      0.949760000000     0.313910000000     0.274410000000    -0.180045   
N5       N      0.129320000000     0.740630000000     0.197830000000    -0.191068   
N6       N      0.089480000000     0.644740000000     0.202850000000    -0.178169   
N7       N      0.626850000000     0.732560000000     0.442660000000    -0.190037   
N8       N      0.586420000000     0.658540000000     0.488280000000    -0.176621   
N9       N      0.286710000000     0.050670000000     0.063700000000    -0.191793   
N10      N      0.257140000000     0.983020000000     0.113400000000    -0.178258   
N11      N      0.400540000000     0.318460000000     0.045240000000    -0.19132    
N12      N      0.446590000000     0.411490000000     0.064270000000    -0.178187   
N13      N      0.689040000000     0.798220000000     0.258890000000    -0.191545   
N14      N      0.693640000000     0.827810000000     0.325010000000    -0.176516   
N15      N      0.693990000000     0.894650000000     0.080250000000    -0.18911    
N16      N      0.700730000000     0.904890000000     0.010430000000    -0.17709    
N17      N      0.746720000000     0.785630000000     0.128500000000    -0.192551   
N18      N      0.798700000000     0.743950000000     0.138980000000    -0.178868   
N19      N      0.632390000000     0.916250000000     0.205330000000    -0.191552   
N20      N      0.582490000000     0.957060000000     0.183760000000    -0.178605   
N21      N      0.035600000000     0.566280000000     0.406210000000    -0.188004   
N22      N      0.041900000000     0.576620000000     0.335600000000    -0.17588    
N23      N      0.041120000000     0.471890000000     0.159830000000    -0.189977   
N24      N      0.040410000000     0.488840000000     0.090630000000    -0.175858   
N25      N      0.944070000000     0.642180000000     0.069090000000    -0.189895   
N26      N      0.986650000000     0.594560000000     0.042670000000    -0.176607   
N27      N      0.346070000000     0.173880000000     0.458490000000    -0.192147   
N28      N      0.344960000000     0.138210000000     0.395320000000    -0.180318   
N29      N      0.338470000000     0.228810000000     0.216750000000    -0.191619   
N30      N      0.339890000000     0.196650000000     0.152470000000    -0.178078   
N31      N      0.399720000000     0.119550000000     0.269010000000    -0.192617   
N32      N      0.445350000000     0.073900000000     0.242120000000    -0.177251   
N33      N      0.086220000000     0.455190000000     0.457220000000    -0.191397   
N34      N      0.129880000000     0.403490000000     0.462690000000    -0.177583   
N35      N      0.280330000000     0.245110000000     0.347480000000    -0.190493   
N36      N      0.252550000000     0.270990000000     0.405780000000    -0.17806    
N37      N      0.469390000000     0.477590000000     0.439870000000    -0.190848   
N38      N      0.469000000000     0.480440000000     0.370550000000    -0.177828   
N39      N      0.554500000000     0.578900000000     0.117570000000    -0.191807   
N40      N      0.545800000000     0.565060000000     0.187950000000    -0.176814   
N41      N      0.894100000000     0.212900000000     0.464210000000    -0.192093   
N42      N      0.924730000000     0.243320000000     0.399660000000    -0.179061   
N43      N      0.844390000000     0.154290000000     0.150960000000    -0.195608   
N44      N      0.851180000000     0.143930000000     0.220260000000    -0.178991   
N45      N      0.124880000000     0.343740000000     0.279080000000    -0.191417   
N46      N      0.159820000000     0.339700000000     0.341580000000    -0.176217   
N47      N      0.216380000000     0.334490000000     0.030510000000    -0.189242   
N48      N      0.217370000000     0.340220000000     0.101020000000    -0.177368   
N49      N      0.046420000000     0.275130000000     0.150860000000    -0.192081   
N50      N      0.972820000000     0.235890000000     0.104450000000    -0.174029   
N51      N      0.291650000000     0.408420000000     0.225560000000    -0.18858    
N52      N      0.378130000000     0.451620000000     0.256870000000    -0.177017   
N53      N      0.548350000000     0.023360000000     0.370770000000    -0.191008   
N54      N      0.558310000000     0.015280000000     0.302230000000    -0.17932    
N55      N      0.471960000000     0.012970000000     0.121570000000    -0.193348   
N56      N      0.522310000000     0.022670000000     0.064420000000    -0.178595   
N57      N      0.669140000000     0.078730000000     0.974890000000    -0.192011   
N58      N      0.736180000000     0.112300000000     0.024410000000    -0.178294   
N59      N      0.246450000000     0.911260000000     0.242540000000    -0.191434   
N60      N      0.218720000000     0.884060000000     0.308630000000    -0.176564   
N61      N      0.142180000000     0.812840000000     0.066660000000    -0.19203    
N62      N      0.172340000000     0.839030000000     0.000530000000    -0.17678    
N63      N      0.327640000000     0.933670000000     0.421220000000    -0.190782   
N64      N      0.406370000000     0.969150000000     0.460390000000    -0.178674   
N65      N      0.809160000000     0.702220000000     0.448700000000    -0.192189   
N66      N      0.838950000000     0.698270000000     0.513520000000    -0.175724   
N67      N      0.900810000000     0.686470000000     0.272280000000    -0.189231   
N68      N      0.897170000000     0.687270000000     0.201410000000    -0.176731   
N69      N      0.728400000000     0.636040000000     0.325680000000    -0.192591   
N70      N      0.634610000000     0.589870000000     0.305110000000    -0.176933   
N71      N      0.067300000000     0.789330000000     0.385050000000    -0.190947   
N72      N      0.974280000000     0.749630000000     0.397050000000    -0.178319   
N73      N      0.818560000000     0.065000000000     0.848200000000    -0.190584   
N74      N      0.767970000000     0.993170000000     0.893690000000    -0.177494   
N75      N      0.994680000000     0.406750000000     0.791370000000    -0.191366   
N76      N      0.949760000000     0.313910000000     0.774410000000    -0.18004    
N77      N      0.129320000000     0.740630000000     0.697830000000    -0.191058   
N78      N      0.089480000000     0.644740000000     0.702850000000    -0.178179   
N79      N      0.626850000000     0.732560000000     0.942660000000    -0.19004    
N80      N      0.586420000000     0.658540000000     0.988270000000    -0.176616   
N81      N      0.286720000000     0.050670000000     0.563700000000    -0.191792   
N82      N      0.257140000000     0.983020000000     0.613390000000    -0.178193   
N83      N      0.400540000000     0.318460000000     0.545240000000    -0.191324   
N84      N      0.446590000000     0.411490000000     0.564270000000    -0.178155   
N85      N      0.689050000000     0.798220000000     0.758890000000    -0.191562   
N86      N      0.693640000000     0.827810000000     0.825010000000    -0.176517   
N87      N      0.693990000000     0.894650000000     0.580250000000    -0.189108   
N88      N      0.700730000000     0.904890000000     0.510430000000    -0.177178   
N89      N      0.746720000000     0.785630000000     0.628500000000    -0.192521   
N90      N      0.798700000000     0.743950000000     0.638980000000    -0.178871   
N91      N      0.632390000000     0.916250000000     0.705330000000    -0.191553   
N92      N      0.582490000000     0.957060000000     0.683760000000    -0.178609   
N93      N      0.035600000000     0.566280000000     0.906210000000    -0.188007   
N94      N      0.041900000000     0.576620000000     0.835600000000    -0.175884   
N95      N      0.041120000000     0.471890000000     0.659830000000    -0.189982   
N96      N      0.040410000000     0.488840000000     0.590630000000    -0.175792   
N97      N      0.944070000000     0.642180000000     0.569090000000    -0.189852   
N98      N      0.986650000000     0.594560000000     0.542670000000    -0.176612   
N99      N      0.346070000000     0.173880000000     0.958480000000    -0.19211    
N100     N      0.344960000000     0.138210000000     0.895320000000    -0.180312   
N101     N      0.338470000000     0.228810000000     0.716750000000    -0.19164    
N102     N      0.339890000000     0.196650000000     0.652470000000    -0.178077   
N103     N      0.399720000000     0.119550000000     0.769010000000    -0.192605   
N104     N      0.445350000000     0.073900000000     0.742120000000    -0.177271   
N105     N      0.086220000000     0.455190000000     0.957220000000    -0.191398   
N106     N      0.129880000000     0.403490000000     0.962690000000    -0.177586   
N107     N      0.280330000000     0.245110000000     0.847480000000    -0.19049    
N108     N      0.252550000000     0.270990000000     0.905780000000    -0.178063   
N109     N      0.469390000000     0.477590000000     0.939870000000    -0.190768   
N110     N      0.469000000000     0.480440000000     0.870540000000    -0.177895   
N111     N      0.554500000000     0.578900000000     0.617570000000    -0.191806   
N112     N      0.545800000000     0.565060000000     0.687950000000    -0.176819   
N113     N      0.894100000000     0.212900000000     0.964210000000    -0.192063   
N114     N      0.924730000000     0.243320000000     0.899660000000    -0.179069   
N115     N      0.844390000000     0.154290000000     0.650960000000    -0.1956     
N116     N      0.851190000000     0.143930000000     0.720260000000    -0.178987   
N117     N      0.124880000000     0.343740000000     0.779080000000    -0.191428   
N118     N      0.159820000000     0.339700000000     0.841590000000    -0.176298   
N119     N      0.216380000000     0.334490000000     0.530510000000    -0.189273   
N120     N      0.217370000000     0.340220000000     0.601020000000    -0.177352   
N121     N      0.046420000000     0.275130000000     0.650860000000    -0.192074   
N122     N      0.972820000000     0.235890000000     0.604450000000    -0.174045   
N123     N      0.291650000000     0.408410000000     0.725560000000    -0.188575   
N124     N      0.378130000000     0.451620000000     0.756870000000    -0.177023   
N125     N      0.548350000000     0.023360000000     0.870770000000    -0.191086   
N126     N      0.558320000000     0.015280000000     0.802240000000    -0.17921    
N127     N      0.471960000000     0.012970000000     0.621570000000    -0.193374   
N128     N      0.522310000000     0.022670000000     0.564420000000    -0.178602   
N129     N      0.669140000000     0.078730000000     0.474890000000    -0.192021   
N130     N      0.736180000000     0.112300000000     0.524410000000    -0.178289   
N131     N      0.246450000000     0.911260000000     0.742540000000    -0.191426   
N132     N      0.218720000000     0.884060000000     0.808630000000    -0.176564   
N133     N      0.142180000000     0.812840000000     0.566660000000    -0.192031   
N134     N      0.172340000000     0.839030000000     0.500530000000    -0.176743   
N135     N      0.327640000000     0.933670000000     0.921220000000    -0.190793   
N136     N      0.406370000000     0.969150000000     0.960390000000    -0.178668   
N137     N      0.809160000000     0.702220000000     0.948700000000    -0.192191   
N138     N      0.838950000000     0.698270000000     0.013520000000    -0.175719   
N139     N      0.900810000000     0.686470000000     0.772280000000    -0.189238   
N140     N      0.897170000000     0.687270000000     0.701410000000    -0.176726   
N141     N      0.728400000000     0.636040000000     0.825680000000    -0.192598   
N142     N      0.634610000000     0.589870000000     0.805110000000    -0.176932   
N143     N      0.067300000000     0.789330000000     0.885050000000    -0.190946   
N144     N      0.974280000000     0.749630000000     0.897050000000    -0.17833    
O1       O      0.824260000000     0.662060000000     0.409090000000    -0.560873   
O2       O      0.868630000000     0.654450000000     0.323350000000    -0.560771   
O3       O      0.906370000000     0.685590000000     0.383900000000    -0.560747   
O4       O      0.787180000000     0.631150000000     0.349080000000    -0.567681   
O5       O      0.797830000000     0.700570000000     0.335830000000    -0.556173   
O6       O      0.917070000000     0.755250000000     0.371480000000    -0.561048   
O7       O      0.880890000000     0.724470000000     0.310780000000    -0.553613   
O8       O      0.836140000000     0.732150000000     0.396600000000    -0.556528   
O9       O      0.211420000000     0.841350000000     0.355760000000    -0.554619   
O10      O      0.189060000000     0.819550000000     0.449370000000    -0.555784   
O11      O      0.136750000000     0.794600000000     0.393980000000    -0.564323   
O12      O      0.262660000000     0.865400000000     0.410900000000    -0.566848   
O13      O      0.257450000000     0.928650000000     0.415680000000    -0.559857   
O14      O      0.131230000000     0.857790000000     0.397720000000    -0.56363    
O15      O      0.181700000000     0.881910000000     0.453320000000    -0.559045   
O16      O      0.205250000000     0.904340000000     0.360360000000    -0.561052   
O17      O      0.527880000000     0.988770000000     0.016190000000    -0.562957   
O18      O      0.538090000000     0.988360000000     0.421760000000    -0.565362   
O19      O      0.597430000000     0.015160000000     0.972730000000    -0.559383   
O20      O      0.469890000000     0.962530000000     0.465150000000    -0.563812   
O21      O      0.477810000000     0.032690000000     0.462760000000    -0.560769   
O22      O      0.605100000000     0.085010000000     0.970600000000    -0.570022   
O23      O      0.547220000000     0.058990000000     0.419480000000    -0.568026   
O24      O      0.536510000000     0.059230000000     0.013760000000    -0.566929   
O25      O      0.142240000000     0.307150000000     0.238000000000    -0.559426   
O26      O      0.189540000000     0.306820000000     0.152010000000    -0.558099   
O27      O      0.226580000000     0.340030000000     0.212660000000    -0.550545   
O28      O      0.106650000000     0.274990000000     0.176980000000    -0.556441   
O29      O      0.110030000000     0.342080000000     0.167100000000    -0.562099   
O30      O      0.230170000000     0.406520000000     0.200340000000    -0.567203   
O31      O      0.193780000000     0.374000000000     0.140230000000    -0.555421   
O32      O      0.148670000000     0.375490000000     0.227110000000    -0.560304   
O33      O      0.847860000000     0.130280000000     0.098640000000    -0.564806   
O34      O      0.882080000000     0.164780000000     0.008480000000    -0.562713   
O35      O      0.925110000000     0.179960000000     0.068010000000    -0.557318   
O36      O      0.802030000000     0.113270000000     0.039580000000    -0.554664   
O37      O      0.796810000000     0.176580000000     0.046040000000    -0.576571   
O38      O      0.917220000000     0.241330000000     0.076780000000    -0.573249   
O39      O      0.875980000000     0.227350000000     0.016340000000    -0.574268   
O40      O      0.839130000000     0.191660000000     0.105740000000    -0.572245   
O41      O      0.493730000000     0.471620000000     0.319120000000    -0.560679   
O42      O      0.527490000000     0.511180000000     0.229330000000    -0.559667   
O43      O      0.571930000000     0.524390000000     0.286680000000    -0.564225   
O44      O      0.448080000000     0.457330000000     0.261590000000    -0.558041   
O45      O      0.441960000000     0.519600000000     0.271000000000    -0.558462   
O46      O      0.565870000000     0.586430000000     0.297520000000    -0.553304   
O47      O      0.521170000000     0.573270000000     0.239480000000    -0.5619     
O48      O      0.485940000000     0.532990000000     0.328650000000    -0.56257    
O49      O      0.207690000000     0.372010000000     0.386660000000    -0.553783   
O50      O      0.236650000000     0.367640000000     0.478300000000    -0.5572     
O51      O      0.253540000000     0.337850000000     0.419940000000    -0.560268   
O52      O      0.192610000000     0.401630000000     0.444830000000    -0.566815   
O53      O      0.128040000000     0.335080000000     0.451350000000    -0.552915   
O54      O      0.189070000000     0.270890000000     0.425330000000    -0.559852   
O55      O      0.172990000000     0.300020000000     0.483960000000    -0.561404   
O56      O      0.143750000000     0.304720000000     0.392980000000    -0.559976   
O57      O      0.376790000000     0.191330000000     0.353560000000    -0.568464   
O58      O      0.372200000000     0.237020000000     0.268060000000    -0.569675   
O59      O      0.344860000000     0.244930000000     0.329950000000    -0.559057   
O60      O      0.402710000000     0.183420000000     0.292460000000    -0.566501   
O61      O      0.335130000000     0.121200000000     0.283260000000    -0.558329   
O62      O      0.277740000000     0.182850000000     0.320800000000    -0.565908   
O63      O      0.304430000000     0.175490000000     0.258850000000    -0.557944   
O64      O      0.308460000000     0.129660000000     0.345260000000    -0.558109   
O65      O      0.069670000000     0.577240000000     0.457750000000    -0.55776    
O66      O      0.075010000000     0.535450000000     0.045230000000    -0.555258   
O67      O      0.095760000000     0.520940000000     0.482950000000    -0.564091   
O68      O      0.047620000000     0.591650000000     0.020470000000    -0.554258   
O69      O      0.977850000000     0.532010000000     0.013310000000    -0.563359   
O70      O      0.026090000000     0.461080000000     0.477230000000    -0.559764   
O71      O      0.004390000000     0.476700000000     0.039550000000    -0.551176   
O72      O      0.999770000000     0.517730000000     0.451040000000    -0.550937   
O73      O      0.724760000000     0.902410000000     0.132440000000    -0.563577   
O74      O      0.723910000000     0.854260000000     0.218660000000    -0.561481   
O75      O      0.751020000000     0.846640000000     0.157380000000    -0.572713   
O76      O      0.696320000000     0.911420000000     0.193400000000    -0.564173   
O77      O      0.628170000000     0.850930000000     0.183560000000    -0.564302   
O78      O      0.683000000000     0.786140000000     0.146870000000    -0.558013   
O79      O      0.655090000000     0.794450000000     0.208560000000    -0.558801   
O80      O      0.655700000000     0.842850000000     0.122320000000    -0.558513   
O81      O      0.916220000000     0.724140000000     0.150260000000    -0.554609   
O82      O      0.885280000000     0.731230000000     0.059410000000    -0.551766   
O83      O      0.865240000000     0.751990000000     0.119540000000    -0.567896   
O84      O      0.937910000000     0.703220000000     0.089510000000    -0.563154   
O85      O      0.878270000000     0.632510000000     0.092670000000    -0.561885   
O86      O      0.805520000000     0.681230000000     0.124280000000    -0.557065   
O87      O      0.825670000000     0.660320000000     0.063750000000    -0.559566   
O88      O      0.857780000000     0.652340000000     0.153500000000    -0.557948   
O89      O      0.522760000000     0.049240000000     0.163930000000    -0.56937    
O90      O      0.564190000000     0.051010000000     0.252140000000    -0.565198   
O91      O      0.576950000000     0.021750000000     0.193020000000    -0.560651   
O92      O      0.510550000000     0.078110000000     0.222740000000    -0.566618   
O93      O      0.450530000000     0.008920000000     0.232950000000    -0.555949   
O94      O      0.516340000000     0.952430000000     0.201480000000    -0.562035   
O95      O      0.504930000000     0.980850000000     0.261050000000    -0.562253   
O96      O      0.462670000000     0.979700000000     0.173070000000    -0.563413   
O97      O      0.310210000000     0.175440000000     0.006520000000    -0.563313   
O98      O      0.306610000000     0.185390000000     0.100880000000    -0.561539   
O99      O      0.336220000000     0.246100000000     0.049500000000    -0.559896   
O100     O      0.281980000000     0.116180000000     0.057590000000    -0.5635     
O101     O      0.350270000000     0.123170000000     0.061880000000    -0.563412   
O102     O      0.404290000000     0.252600000000     0.052810000000    -0.567354   
O103     O      0.376080000000     0.194610000000     0.104670000000    -0.560309   
O104     O      0.378680000000     0.182550000000     0.010370000000    -0.566591   
O105     O      0.465430000000     0.515180000000     0.486540000000    -0.564129   
O106     O      0.507060000000     0.565030000000     0.072940000000    -0.561432   
O107     O      0.520460000000     0.600180000000     0.510790000000    -0.557948   
O108     O      0.452240000000     0.480130000000     0.048260000000    -0.555986   
O109     O      0.512290000000     0.470610000000     0.042900000000    -0.565674   
O110     O      0.579680000000     0.589560000000     0.504500000000    -0.559751   
O111     O      0.566520000000     0.554650000000     0.066860000000    -0.563901   
O112     O      0.524210000000     0.503690000000     0.480670000000    -0.562742   
O113     O      0.190980000000     0.892990000000     0.202810000000    -0.559627   
O114     O      0.138840000000     0.842220000000     0.118110000000    -0.563469   
O115     O      0.132420000000     0.807710000000     0.180230000000    -0.565015   
O116     O      0.196010000000     0.926100000000     0.140960000000    -0.568677   
O117     O      0.254510000000     0.915790000000     0.129800000000    -0.55496    
O118     O      0.190450000000     0.796840000000     0.169290000000    -0.562212   
O119     O      0.196290000000     0.830290000000     0.107130000000    -0.558202   
O120     O      0.248320000000     0.880780000000     0.191730000000    -0.560482   
O121     O      0.005940000000     0.491650000000     0.200690000000    -0.557028   
O122     O      0.007220000000     0.544310000000     0.285510000000    -0.556186   
O123     O      0.029640000000     0.577060000000     0.222250000000    -0.558926   
O124     O      0.984480000000     0.460700000000     0.263660000000    -0.569764   
O125     O      0.054790000000     0.474550000000     0.272290000000    -0.557464   
O126     O      0.100230000000     0.591180000000     0.230630000000    -0.56157    
O127     O      0.078210000000     0.559670000000     0.294000000000    -0.550437   
O128     O      0.076830000000     0.506910000000     0.209030000000    -0.554634   
O129     O      0.836260000000     0.166840000000     0.270180000000    -0.569415   
O130     O      0.873940000000     0.219160000000     0.356330000000    -0.567332   
O131     O      0.885800000000     0.251610000000     0.294320000000    -0.575305   
O132     O      0.822930000000     0.132800000000     0.332240000000    -0.568836   
O133     O      0.884420000000     0.126170000000     0.326870000000    -0.559731   
O134     O      0.949110000000     0.247590000000     0.290780000000    -0.554112   
O135     O      0.934940000000     0.210940000000     0.352480000000    -0.562557   
O136     O      0.899540000000     0.162970000000     0.264940000000    -0.563411   
O137     O      0.665460000000     0.881790000000     0.459600000000    -0.561222   
O138     O      0.662480000000     0.845050000000     0.369520000000    -0.560087   
O139     O      0.630700000000     0.800750000000     0.427550000000    -0.556928   
O140     O      0.698920000000     0.926980000000     0.401510000000    -0.551662   
O141     O      0.762900000000     0.925620000000     0.410490000000    -0.564508   
O142     O      0.694980000000     0.799780000000     0.434670000000    -0.562155   
O143     O      0.728000000000     0.846140000000     0.376810000000    -0.554791   
O144     O      0.729970000000     0.881180000000     0.467930000000    -0.553826   
O145     O      0.824270000000     0.662060000000     0.909090000000    -0.560846   
O146     O      0.868630000000     0.654450000000     0.823350000000    -0.560834   
O147     O      0.906370000000     0.685590000000     0.883900000000    -0.560871   
O148     O      0.787180000000     0.631150000000     0.849080000000    -0.56761    
O149     O      0.797830000000     0.700570000000     0.835830000000    -0.556222   
O150     O      0.917070000000     0.755250000000     0.871480000000    -0.561022   
O151     O      0.880890000000     0.724470000000     0.810780000000    -0.553436   
O152     O      0.836140000000     0.732150000000     0.896600000000    -0.556699   
O153     O      0.211420000000     0.841350000000     0.855760000000    -0.554637   
O154     O      0.189060000000     0.819550000000     0.949370000000    -0.555696   
O155     O      0.136750000000     0.794600000000     0.893990000000    -0.564369   
O156     O      0.262660000000     0.865400000000     0.910900000000    -0.566863   
O157     O      0.257450000000     0.928650000000     0.915680000000    -0.559855   
O158     O      0.131230000000     0.857790000000     0.897710000000    -0.563618   
O159     O      0.181700000000     0.881910000000     0.953320000000    -0.558978   
O160     O      0.205250000000     0.904340000000     0.860360000000    -0.561032   
O161     O      0.527880000000     0.988770000000     0.516190000000    -0.563068   
O162     O      0.538090000000     0.988360000000     0.921750000000    -0.565057   
O163     O      0.597430000000     0.015160000000     0.472730000000    -0.559422   
O164     O      0.469890000000     0.962530000000     0.965150000000    -0.563769   
O165     O      0.477810000000     0.032690000000     0.962760000000    -0.560781   
O166     O      0.605100000000     0.085010000000     0.470600000000    -0.570013   
O167     O      0.547220000000     0.058990000000     0.919480000000    -0.568071   
O168     O      0.536510000000     0.059230000000     0.513760000000    -0.566971   
O169     O      0.142240000000     0.307150000000     0.738000000000    -0.559471   
O170     O      0.189540000000     0.306820000000     0.652010000000    -0.558102   
O171     O      0.226580000000     0.340030000000     0.712660000000    -0.550547   
O172     O      0.106650000000     0.274990000000     0.676980000000    -0.556449   
O173     O      0.110030000000     0.342080000000     0.667100000000    -0.562071   
O174     O      0.230170000000     0.406520000000     0.700340000000    -0.567168   
O175     O      0.193780000000     0.374000000000     0.640230000000    -0.555376   
O176     O      0.148670000000     0.375490000000     0.727120000000    -0.560231   
O177     O      0.847860000000     0.130280000000     0.598640000000    -0.564808   
O178     O      0.882080000000     0.164780000000     0.508480000000    -0.562797   
O179     O      0.925110000000     0.179960000000     0.568010000000    -0.557326   
O180     O      0.802030000000     0.113270000000     0.539580000000    -0.554672   
O181     O      0.796810000000     0.176580000000     0.546040000000    -0.57658    
O182     O      0.917220000000     0.241330000000     0.576780000000    -0.573259   
O183     O      0.875980000000     0.227350000000     0.516340000000    -0.574358   
O184     O      0.839130000000     0.191660000000     0.605740000000    -0.572246   
O185     O      0.493730000000     0.471620000000     0.819110000000    -0.560784   
O186     O      0.527490000000     0.511180000000     0.729330000000    -0.559732   
O187     O      0.571930000000     0.524390000000     0.786680000000    -0.564257   
O188     O      0.448080000000     0.457330000000     0.761590000000    -0.558078   
O189     O      0.441960000000     0.519600000000     0.771000000000    -0.558461   
O190     O      0.565870000000     0.586430000000     0.797520000000    -0.553206   
O191     O      0.521170000000     0.573270000000     0.739480000000    -0.561988   
O192     O      0.485940000000     0.532990000000     0.828660000000    -0.562244   
O193     O      0.207690000000     0.372010000000     0.886660000000    -0.553814   
O194     O      0.236650000000     0.367640000000     0.978300000000    -0.55723    
O195     O      0.253540000000     0.337850000000     0.919940000000    -0.560277   
O196     O      0.192610000000     0.401630000000     0.944830000000    -0.566819   
O197     O      0.128040000000     0.335080000000     0.951350000000    -0.552913   
O198     O      0.189070000000     0.270890000000     0.925330000000    -0.559859   
O199     O      0.172990000000     0.300020000000     0.983960000000    -0.561348   
O200     O      0.143750000000     0.304720000000     0.892980000000    -0.56       
O201     O      0.376790000000     0.191330000000     0.853560000000    -0.568437   
O202     O      0.372200000000     0.237020000000     0.768060000000    -0.56973    
O203     O      0.344860000000     0.244930000000     0.829960000000    -0.559006   
O204     O      0.402710000000     0.183420000000     0.792470000000    -0.566494   
O205     O      0.335130000000     0.121200000000     0.783260000000    -0.558305   
O206     O      0.277740000000     0.182850000000     0.820800000000    -0.565934   
O207     O      0.304440000000     0.175490000000     0.758850000000    -0.558071   
O208     O      0.308460000000     0.129660000000     0.845260000000    -0.558118   
O209     O      0.069670000000     0.577240000000     0.957750000000    -0.55782    
O210     O      0.075010000000     0.535450000000     0.545230000000    -0.555308   
O211     O      0.095760000000     0.520940000000     0.982950000000    -0.564151   
O212     O      0.047620000000     0.591650000000     0.520470000000    -0.554239   
O213     O      0.977850000000     0.532010000000     0.513310000000    -0.563423   
O214     O      0.026090000000     0.461080000000     0.977230000000    -0.559742   
O215     O      0.004390000000     0.476700000000     0.539550000000    -0.551326   
O216     O      0.999770000000     0.517730000000     0.951040000000    -0.550917   
O217     O      0.724760000000     0.902410000000     0.632440000000    -0.563565   
O218     O      0.723900000000     0.854260000000     0.718660000000    -0.561558   
O219     O      0.751030000000     0.846640000000     0.657380000000    -0.572547   
O220     O      0.696320000000     0.911420000000     0.693400000000    -0.564132   
O221     O      0.628170000000     0.850930000000     0.683560000000    -0.564299   
O222     O      0.683000000000     0.786140000000     0.646870000000    -0.558001   
O223     O      0.655090000000     0.794450000000     0.708560000000    -0.558831   
O224     O      0.655700000000     0.842850000000     0.622320000000    -0.55852    
O225     O      0.916220000000     0.724140000000     0.650260000000    -0.554582   
O226     O      0.885280000000     0.731230000000     0.559410000000    -0.551819   
O227     O      0.865240000000     0.751990000000     0.619540000000    -0.567876   
O228     O      0.937910000000     0.703220000000     0.589500000000    -0.563151   
O229     O      0.878270000000     0.632510000000     0.592660000000    -0.562005   
O230     O      0.805520000000     0.681230000000     0.624280000000    -0.557095   
O231     O      0.825670000000     0.660320000000     0.563750000000    -0.559692   
O232     O      0.857780000000     0.652340000000     0.653490000000    -0.558081   
O233     O      0.522760000000     0.049240000000     0.663930000000    -0.569398   
O234     O      0.564190000000     0.051010000000     0.752140000000    -0.565206   
O235     O      0.576950000000     0.021750000000     0.693020000000    -0.560662   
O236     O      0.510550000000     0.078110000000     0.722740000000    -0.566636   
O237     O      0.450540000000     0.008920000000     0.732950000000    -0.556103   
O238     O      0.516340000000     0.952430000000     0.701480000000    -0.562006   
O239     O      0.504930000000     0.980850000000     0.761060000000    -0.562245   
O240     O      0.462670000000     0.979710000000     0.673070000000    -0.563332   
O241     O      0.310210000000     0.175440000000     0.506520000000    -0.563504   
O242     O      0.306610000000     0.185390000000     0.600880000000    -0.561543   
O243     O      0.336220000000     0.246100000000     0.549500000000    -0.559902   
O244     O      0.281980000000     0.116180000000     0.557590000000    -0.563509   
O245     O      0.350270000000     0.123170000000     0.561880000000    -0.563415   
O246     O      0.404290000000     0.252600000000     0.552810000000    -0.567363   
O247     O      0.376080000000     0.194610000000     0.604670000000    -0.560314   
O248     O      0.378680000000     0.182550000000     0.510370000000    -0.566802   
O249     O      0.465430000000     0.515180000000     0.986540000000    -0.564261   
O250     O      0.507060000000     0.565030000000     0.572940000000    -0.561416   
O251     O      0.520460000000     0.600180000000     0.010790000000    -0.557934   
O252     O      0.452240000000     0.480130000000     0.548260000000    -0.556003   
O253     O      0.512290000000     0.470610000000     0.542900000000    -0.565716   
O254     O      0.579680000000     0.589560000000     0.004500000000    -0.559732   
O255     O      0.566520000000     0.554650000000     0.566860000000    -0.563888   
O256     O      0.524210000000     0.503690000000     0.980670000000    -0.562844   
O257     O      0.190980000000     0.892990000000     0.702820000000    -0.559488   
O258     O      0.138840000000     0.842220000000     0.618110000000    -0.563411   
O259     O      0.132420000000     0.807710000000     0.680230000000    -0.564946   
O260     O      0.196010000000     0.926100000000     0.640960000000    -0.568694   
O261     O      0.254510000000     0.915790000000     0.629800000000    -0.554987   
O262     O      0.190450000000     0.796840000000     0.669280000000    -0.562224   
O263     O      0.196290000000     0.830290000000     0.607130000000    -0.558199   
O264     O      0.248320000000     0.880780000000     0.691730000000    -0.560529   
O265     O      0.005940000000     0.491650000000     0.700690000000    -0.557057   
O266     O      0.007220000000     0.544310000000     0.785510000000    -0.556169   
O267     O      0.029640000000     0.577060000000     0.722260000000    -0.559      
O268     O      0.984480000000     0.460700000000     0.763660000000    -0.569842   
O269     O      0.054790000000     0.474550000000     0.772280000000    -0.557607   
O270     O      0.100230000000     0.591180000000     0.730630000000    -0.561616   
O271     O      0.078210000000     0.559670000000     0.793990000000    -0.550586   
O272     O      0.076830000000     0.506910000000     0.709030000000    -0.55469    
O273     O      0.836260000000     0.166840000000     0.770180000000    -0.569282   
O274     O      0.873940000000     0.219160000000     0.856330000000    -0.567622   
O275     O      0.885800000000     0.251610000000     0.794320000000    -0.575251   
O276     O      0.822930000000     0.132800000000     0.832240000000    -0.568915   
O277     O      0.884420000000     0.126170000000     0.826870000000    -0.559697   
O278     O      0.949110000000     0.247590000000     0.790780000000    -0.554073   
O279     O      0.934940000000     0.210940000000     0.852490000000    -0.562393   
O280     O      0.899540000000     0.162970000000     0.764940000000    -0.563337   
O281     O      0.665460000000     0.881790000000     0.959600000000    -0.561155   
O282     O      0.662480000000     0.845050000000     0.869520000000    -0.560104   
O283     O      0.630700000000     0.800750000000     0.927550000000    -0.556943   
O284     O      0.698920000000     0.926980000000     0.901520000000    -0.551731   
O285     O      0.762900000000     0.925620000000     0.910490000000    -0.564517   
O286     O      0.694980000000     0.799780000000     0.934670000000    -0.562156   
O287     O      0.728000000000     0.846140000000     0.876810000000    -0.55479    
O288     O      0.729980000000     0.881180000000     0.967930000000    -0.553681   
V1       V      0.846220000000     0.655590000000     0.366820000000     1.39206    
V2       V      0.858280000000     0.730840000000     0.353030000000     1.37415    
V3       V      0.200130000000     0.827660000000     0.402350000000     1.38808    
V4       V      0.193810000000     0.895760000000     0.407030000000     1.38997    
V5       V      0.533110000000     0.985920000000     0.969070000000     1.39494    
V6       V      0.541980000000     0.061770000000     0.466550000000     1.39809    
V7       V      0.166130000000     0.304580000000     0.195480000000     1.37303    
V8       V      0.170610000000     0.377040000000     0.183120000000     1.39407    
V9       V      0.864270000000     0.144350000000     0.053100000000     1.3832     
V10      V      0.856990000000     0.211700000000     0.061280000000     1.43313    
V11      V      0.510490000000     0.488640000000     0.273710000000     1.39267    
V12      V      0.503540000000     0.555600000000     0.284530000000     1.39206    
V13      V      0.225280000000     0.372340000000     0.432150000000     1.39255    
V14      V      0.155910000000     0.300000000000     0.438690000000     1.38375    
V15      V      0.376730000000     0.216750000000     0.311360000000     1.40185    
V16      V      0.303730000000     0.149790000000     0.301600000000     1.37919    
V17      V      0.074740000000     0.558740000000     0.501830000000     1.38239    
V18      V      0.999260000000     0.494480000000     0.994960000000     1.37735    
V19      V      0.726600000000     0.881120000000     0.176090000000     1.39752    
V20      V      0.652720000000     0.816110000000     0.165000000000     1.38606    
V21      V      0.903680000000     0.730380000000     0.104530000000     1.38326    
V22      V      0.839500000000     0.653750000000     0.108750000000     1.38694    
V23      V      0.546020000000     0.052770000000     0.207560000000     1.40235    
V24      V      0.481100000000     0.977750000000     0.217560000000     1.39323    
V25      V      0.306040000000     0.180590000000     0.053500000000     1.38944    
V26      V      0.380000000000     0.188400000000     0.057650000000     1.39231    
V27      V      0.484010000000     0.540700000000     0.529860000000     1.39051    
V28      V      0.548160000000     0.529440000000     0.023380000000     1.39682    
V29      V      0.162210000000     0.867580000000     0.161030000000     1.38828    
V30      V      0.224740000000     0.855530000000     0.148960000000     1.38824    
V31      V      0.004080000000     0.517980000000     0.242620000000     1.38638    
V32      V      0.080350000000     0.533670000000     0.251870000000     1.3782     
V33      V      0.852230000000     0.192710000000     0.313530000000     1.42463    
V34      V      0.919500000000     0.186550000000     0.308600000000     1.37627    
V35      V      0.661850000000     0.863740000000     0.414220000000     1.38505    
V36      V      0.731400000000     0.862920000000     0.422860000000     1.3854     
V37      V      0.846230000000     0.655590000000     0.866820000000     1.39219    
V38      V      0.858270000000     0.730840000000     0.853040000000     1.37419    
V39      V      0.200130000000     0.827660000000     0.902350000000     1.38814    
V40      V      0.193810000000     0.895760000000     0.907030000000     1.3899     
V41      V      0.533110000000     0.985920000000     0.469070000000     1.39536    
V42      V      0.541980000000     0.061770000000     0.966550000000     1.39814    
V43      V      0.166130000000     0.304580000000     0.695480000000     1.37309    
V44      V      0.170610000000     0.377040000000     0.683120000000     1.3938     
V45      V      0.864270000000     0.144350000000     0.553100000000     1.3832     
V46      V      0.856990000000     0.211700000000     0.561280000000     1.43313    
V47      V      0.510490000000     0.488640000000     0.773710000000     1.39297    
V48      V      0.503540000000     0.555600000000     0.784520000000     1.39168    
V49      V      0.225280000000     0.372340000000     0.932150000000     1.39257    
V50      V      0.155910000000     0.300000000000     0.938690000000     1.38372    
V51      V      0.376730000000     0.216750000000     0.811360000000     1.40184    
V52      V      0.303730000000     0.149790000000     0.801600000000     1.37927    
V53      V      0.074740000000     0.558740000000     0.001830000000     1.38263    
V54      V      0.999260000000     0.494480000000     0.494960000000     1.37759    
V55      V      0.726600000000     0.881120000000     0.676090000000     1.39737    
V56      V      0.652720000000     0.816110000000     0.665000000000     1.38609    
V57      V      0.903680000000     0.730380000000     0.604530000000     1.38311    
V58      V      0.839500000000     0.653750000000     0.608750000000     1.38717    
V59      V      0.546020000000     0.052770000000     0.707560000000     1.40243    
V60      V      0.481100000000     0.977750000000     0.717570000000     1.39316    
V61      V      0.306040000000     0.180590000000     0.553500000000     1.38945    
V62      V      0.380000000000     0.188400000000     0.557650000000     1.39232    
V63      V      0.484010000000     0.540700000000     0.029860000000     1.39058    
V64      V      0.548160000000     0.529440000000     0.523380000000     1.39676    
V65      V      0.162210000000     0.867580000000     0.661030000000     1.38798    
V66      V      0.224740000000     0.855530000000     0.648960000000     1.38839    
V67      V      0.004080000000     0.517980000000     0.742620000000     1.38646    
V68      V      0.080350000000     0.533670000000     0.751870000000     1.37857    
V69      V      0.852230000000     0.192710000000     0.813540000000     1.42474    
V70      V      0.919500000000     0.186550000000     0.808600000000     1.37597    
V71      V      0.661850000000     0.863740000000     0.914220000000     1.3851     
V72      V      0.731400000000     0.862920000000     0.922860000000     1.38537    


