data_structure

_audit_creation_method RASPA-1.0
_audit_creation_date 2023-6-5
_audit_author_name 'Poobodin Mano'

_cell_length_a    33.9888
_cell_length_b    34.1161
_cell_length_c    40.5338
_cell_angle_alpha 89.9798
_cell_angle_beta  90.0203
_cell_angle_gamma 119.979
_cell_volume      40713.2

_symmetry_cell_setting          triclinic
_symmetry_space_group_name_Hall 'P 1'
_symmetry_space_group_name_H-M  'P 1'
_symmetry_Int_Tables_number     1

_symmetry_equiv_pos_as_xyz 'x,y,z'

loop_
_atom_site_label
_atom_site_type_symbol
_atom_site_fract_x
_atom_site_fract_y
_atom_site_fract_z
_atom_site_charge
C1       C      0.886520000000     0.686560000000     0.260060000000     0.497597   
C2       C      0.833040000000     0.686940000000     0.377080000000     0.49007    
C3       C      0.779620000000     0.654600000000     0.295970000000     0.4747     
C4       C      0.938940000000     0.718400000000     0.341490000000     0.500666   
C5       C      0.220620000000     0.869000000000     0.341600000000     0.497239   
C6       C      0.176450000000     0.827840000000     0.461400000000     0.503753   
C7       C      0.117000000000     0.804180000000     0.382700000000     0.478426   
C8       C      0.281250000000     0.893700000000     0.419540000000     0.500858   
C9       C      0.505120000000     0.005190000000     0.061860000000     0.475187   
C10      C      0.534790000000     0.007060000000     0.439220000000     0.474149   
C11      C      0.604310000000     0.042560000000     0.013050000000     0.475283   
C12      C      0.436020000000     0.969500000000     0.488330000000     0.475447   
C13      C      0.179020000000     0.351650000000     0.214630000000     0.498778   
C14      C      0.213550000000     0.345180000000     0.093790000000     0.473279   
C15      C      0.279960000000     0.391400000000     0.165930000000     0.497744   
C16      C      0.110470000000     0.305110000000     0.142710000000     0.49623    
C17      C      0.862840000000     0.182980000000     0.033440000000     0.498486   
C18      C      0.826480000000     0.141990000000     0.154000000000     0.502586   
C19      C      0.761530000000     0.117770000000     0.079360000000     0.4977     
C20      C      0.929490000000     0.208710000000     0.106850000000     0.473494   
C21      C      0.554280000000     0.547820000000     0.154420000000     0.50805    
C22      C      0.529330000000     0.522600000000     0.277530000000     0.474577   
C23      C      0.456860000000     0.486980000000     0.207180000000     0.474008   
C24      C      0.626720000000     0.582970000000     0.225590000000     0.50451    
C25      C      0.157550000000     0.353640000000     0.344280000000     0.4776     
C26      C      0.206060000000     0.342650000000     0.460470000000     0.503146   
C27      C      0.223250000000     0.309050000000     0.378470000000     0.499232   
C28      C      0.142110000000     0.386870000000     0.426350000000     0.497844   
C29      C      0.342810000000     0.175760000000     0.375550000000     0.478338   
C30      C      0.344300000000     0.186480000000     0.251090000000     0.505351   
C31      C      0.304920000000     0.228420000000     0.317330000000     0.477124   
C32      C      0.381700000000     0.133790000000     0.310590000000     0.474081   
C33      C      0.019820000000     0.548980000000     0.432520000000     0.473912   
C34      C      0.026790000000     0.500650000000     0.049810000000     0.492995   
C35      C      0.058800000000     0.480500000000     0.468310000000     0.474809   
C36      C      0.986930000000     0.568410000000     0.013750000000     0.473818   
C37      C      0.682450000000     0.853890000000     0.101860000000     0.472186   
C38      C      0.676720000000     0.829960000000     0.225570000000     0.502444   
C39      C      0.717320000000     0.794570000000     0.156510000000     0.503371   
C40      C      0.641470000000     0.889150000000     0.170480000000     0.475429   
C41      C      0.868310000000     0.685400000000     0.128110000000     0.469481   
C42      C      0.821430000000     0.689790000000     0.009760000000     0.470523   
C43      C      0.798100000000     0.720830000000     0.089440000000     0.472973   
C44      C      0.893080000000     0.654380000000     0.048020000000     0.498383   
C45      C      0.484210000000     0.006510000000     0.191000000000     0.505367   
C46      C      0.540420000000     0.006490000000     0.306820000000     0.502226   
C47      C      0.555740000000     0.969560000000     0.227060000000     0.498243   
C48      C      0.468240000000     0.043570000000     0.269860000000     0.50129    
C49      C      0.347230000000     0.147380000000     0.001070000000     0.509577   
C50      C      0.349050000000     0.196960000000     0.118850000000     0.476721   
C51      C      0.383630000000     0.253510000000     0.040400000000     0.496649   
C52      C      0.313080000000     0.090340000000     0.077890000000     0.504264   
C53      C      0.517060000000     0.511720000000     0.026320000000     0.47416    
C54      C      0.488110000000     0.483100000000     0.403790000000     0.50213    
C55      C      0.457710000000     0.413020000000     0.976180000000     0.474076   
C56      C      0.547280000000     0.581770000000     0.453620000000     0.498068   
C57      C      0.217950000000     0.866930000000     0.208910000000     0.474593   
C58      C      0.163750000000     0.811580000000     0.092680000000     0.474264   
C59      C      0.148730000000     0.757560000000     0.171250000000     0.498467   
C60      C      0.232500000000     0.920170000000     0.131530000000     0.476071   
C61      C      0.027070000000     0.525660000000     0.302940000000     0.50301    
C62      C      0.029590000000     0.486470000000     0.182500000000     0.473454   
C63      C      0.992650000000     0.423640000000     0.257820000000     0.474322   
C64      C      0.065280000000     0.589790000000     0.228180000000     0.478119   
C65      C      0.847300000000     0.163840000000     0.285010000000     0.474425   
C66      C      0.888220000000     0.210620000000     0.404240000000     0.475444   
C67      C      0.914800000000     0.268320000000     0.326460000000     0.498986   
C68      C      0.819170000000     0.104910000000     0.363160000000     0.497407   
C69      C      0.686040000000     0.874340000000     0.471570000000     0.498332   
C70      C      0.677040000000     0.813380000000     0.356150000000     0.472952   
C71      C      0.642590000000     0.764640000000     0.437200000000     0.474333   
C72      C      0.721410000000     0.923670000000     0.390210000000     0.472378   
C73      C      0.791560000000     0.988290000000     0.367780000000    -0.0143142  
C74      C      0.718960000000     0.990280000000     0.367630000000    -0.097412   
C75      C      0.816380000000     0.035230000000     0.383100000000    -0.00262086 
C76      C      0.744440000000     0.039100000000     0.380880000000     0.322895   
C77      C      0.923440000000     0.352630000000     0.273070000000    -0.0144851  
C78      C      0.998910000000     0.356340000000     0.273950000000    -0.099669   
C79      C      0.916150000000     0.338240000000     0.309090000000    -0.00247585 
C80      C      0.988810000000     0.336220000000     0.309040000000     0.323423   
C81      C      0.059750000000     0.658440000000     0.215610000000    -0.016453   
C82      C      0.135430000000     0.663480000000     0.220880000000    -0.101453   
C83      C      0.076260000000     0.687770000000     0.184300000000    -0.00305425 
C84      C      0.150460000000     0.688130000000     0.188010000000     0.327424   
C85      C      0.645040000000     0.697030000000     0.457580000000    -0.015705   
C86      C      0.572450000000     0.698680000000     0.458410000000    -0.10152    
C87      C      0.620710000000     0.650490000000     0.440680000000    -0.0035774  
C88      C      0.548320000000     0.653810000000     0.439990000000     0.327949   
C89      C      0.231830000000     0.991100000000     0.121160000000    -0.0137762  
C90      C      0.305110000000     0.990000000000     0.118420000000    -0.0991849  
C91      C      0.243740000000     0.017640000000     0.089080000000    -0.0028565  
C92      C      0.319010000000     0.020790000000     0.087910000000     0.325166   
C93      C      0.385210000000     0.342630000000     0.989850000000    -0.01562    
C94      C      0.457980000000     0.341670000000     0.985850000000    -0.0999691  
C95      C      0.376250000000     0.319790000000     0.023920000000    -0.00416021 
C96      C      0.452280000000     0.324090000000     0.021050000000     0.326072   
C97      C      0.716640000000     0.812660000000     0.305320000000    -0.0180122  
C98      C      0.632280000000     0.774260000000     0.306340000000    -0.10053    
C99      C      0.718510000000     0.844440000000     0.277860000000     0.00235547 
C100     C      0.632280000000     0.803360000000     0.277620000000     0.32914    
C101     C      0.728050000000     0.881000000000     0.050920000000    -0.0160485  
C102     C      0.641840000000     0.840510000000     0.049030000000    -0.099849   
C103     C      0.729430000000     0.911120000000     0.022390000000    -0.000882683
C104     C      0.645250000000     0.874220000000     0.022680000000     0.32625    
C105     C      0.796700000000     0.788040000000     0.110370000000    -0.0145175  
C106     C      0.724730000000     0.712110000000     0.109380000000    -0.101703   
C107     C      0.788030000000     0.793100000000     0.146540000000    -0.00252518 
C108     C      0.714620000000     0.720720000000     0.144840000000     0.328532   
C109     C      0.645140000000     0.963250000000     0.179560000000    -0.0147636  
C110     C      0.570580000000     0.892480000000     0.173680000000    -0.0982842  
C111     C      0.628700000000     0.974640000000     0.211570000000    -0.00406288 
C112     C      0.554890000000     0.900190000000     0.206980000000     0.325413   
C113     C      0.977970000000     0.540600000000     0.380360000000    -0.0181716  
C114     C      0.062000000000     0.588290000000     0.382010000000    -0.0993368  
C115     C      0.980920000000     0.511560000000     0.352810000000     0.00116794 
C116     C      0.067180000000     0.558910000000     0.355620000000     0.326448   
C117     C      0.071050000000     0.488730000000     0.131580000000    -0.0185438  
C118     C      0.986860000000     0.444270000000     0.132940000000    -0.0984933  
C119     C      0.070200000000     0.514770000000     0.101090000000     0.00171816 
C120     C      0.983480000000     0.465690000000     0.100620000000     0.324103   
C121     C      0.919090000000     0.565130000000     0.038550000000    -0.0144646  
C122     C      0.992560000000     0.638740000000     0.036760000000    -0.0965143  
C123     C      0.894090000000     0.588090000000     0.025120000000    -0.00166118 
C124     C      0.966480000000     0.663150000000     0.026710000000     0.322284   
C125     C      0.386030000000     0.194530000000     0.427770000000    -0.0126525  
C126     C      0.300440000000     0.144440000000     0.427510000000    -0.101902   
C127     C      0.389460000000     0.159590000000     0.449610000000    -0.00553995 
C128     C      0.305390000000     0.110930000000     0.449560000000     0.32991    
C129     C      0.391310000000     0.234700000000     0.169850000000    -0.011963   
C130     C      0.306800000000     0.197050000000     0.168440000000    -0.0978129  
C131     C      0.389190000000     0.207040000000     0.200080000000    -0.00334326 
C132     C      0.303040000000     0.167030000000     0.197750000000     0.324736   
C133     C      0.452460000000     0.129940000000     0.311160000000    -0.0134921  
C134     C      0.377590000000     0.058750000000     0.310730000000    -0.100937   
C135     C      0.468150000000     0.114190000000     0.281500000000    -0.00220366 
C136     C      0.394340000000     0.039280000000     0.283380000000     0.32553    
C137     C      0.050410000000     0.410710000000     0.442390000000    -0.0152599  
C138     C      0.126470000000     0.481930000000     0.444760000000    -0.102906   
C139     C      0.073320000000     0.382880000000     0.450800000000    -0.00309839 
C140     C      0.148310000000     0.454400000000     0.455260000000     0.328427   
C141     C      0.308640000000     0.302420000000     0.326720000000    -0.013875   
C142     C      0.233990000000     0.231660000000     0.322250000000    -0.0990208  
C143     C      0.294740000000     0.312840000000     0.360220000000    -0.00516144 
C144     C      0.220160000000     0.239160000000     0.356460000000     0.32608    
C145     C      0.538800000000     0.489460000000     0.329080000000    -0.0149233  
C146     C      0.499030000000     0.535410000000     0.329340000000    -0.0993962  
C147     C      0.501700000000     0.454740000000     0.351530000000     0.000170443
C148     C      0.461500000000     0.499030000000     0.350980000000     0.325636   
C149     C      0.503050000000     0.539210000000     0.079020000000    -0.0162023  
C150     C      0.550760000000     0.501220000000     0.077160000000    -0.104046   
C151     C      0.537880000000     0.574830000000     0.102630000000    -0.00188584 
C152     C      0.584160000000     0.536720000000     0.101140000000     0.330726   
C153     C      0.925740000000     0.207630000000     0.455570000000    -0.0150422  
C154     C      0.879920000000     0.246000000000     0.455170000000    -0.0969116  
C155     C      0.894410000000     0.173810000000     0.481460000000    -0.00096697 
C156     C      0.849250000000     0.214890000000     0.482510000000     0.324489   
C157     C      0.815300000000     0.174770000000     0.233850000000    -0.0145423  
C158     C      0.861260000000     0.134390000000     0.233580000000    -0.0989359  
C159     C      0.788020000000     0.145500000000     0.204690000000    -0.000877733
C160     C      0.831200000000     0.104390000000     0.205460000000     0.326425   
C161     C      0.117550000000     0.314290000000     0.293370000000    -0.0168626  
C162     C      0.164280000000     0.398170000000     0.294040000000    -0.0969758  
C163     C      0.147860000000     0.311340000000     0.266750000000     0.000976031
C164     C      0.193190000000     0.397440000000     0.265320000000     0.324837   
C165     C      0.255290000000     0.387490000000     0.044100000000    -0.0120263  
C166     C      0.216730000000     0.303550000000     0.044780000000    -0.0969717  
C167     C      0.234740000000     0.387080000000     0.010540000000    -0.00428999 
C168     C      0.192010000000     0.300430000000     0.012460000000     0.324156   
C169     C      0.003930000000     0.212690000000     0.111790000000    -0.0138736  
C170     C      0.999140000000     0.283810000000     0.111770000000    -0.101153   
C171     C      0.038910000000     0.231890000000     0.139530000000    -0.00339711 
C172     C      0.036320000000     0.304040000000     0.138250000000     0.325694   
C173     C      0.386950000000     0.411310000000     0.203030000000    -0.0152623  
C174     C      0.382160000000     0.482200000000     0.202100000000    -0.103172   
C175     C      0.352720000000     0.392210000000     0.174430000000    -0.00377396 
C176     C      0.352000000000     0.465420000000     0.171660000000     0.329469   
C177     C      0.516630000000     0.963050000000     0.387900000000    -0.0151054  
C178     C      0.558410000000     0.049190000000     0.386930000000    -0.0974481  
C179     C      0.541330000000     0.964020000000     0.356110000000    -0.000967467
C180     C      0.584760000000     0.048080000000     0.356710000000     0.32481    
C181     C      0.478810000000     0.963300000000     0.114490000000    -0.0130503  
C182     C      0.517270000000     0.049150000000     0.112870000000    -0.100928   
C183     C      0.446360000000     0.963000000000     0.140970000000    -0.00413712 
C184     C      0.484590000000     0.046840000000     0.139610000000     0.327716   
C185     C      0.672910000000     0.037000000000     0.027150000000    -0.0175321  
C186     C      0.675120000000     0.111450000000     0.029200000000    -0.103735   
C187     C      0.693340000000     0.045620000000     0.062160000000    -0.00279581 
C188     C      0.689370000000     0.116750000000     0.065270000000     0.330719   
C189     C      0.266720000000     0.875750000000     0.256870000000    -0.0206201  
C190     C      0.221520000000     0.914550000000     0.256180000000    -0.0979942  
C191     C      0.245690000000     0.852600000000     0.289540000000     0.0067752  
C192     C      0.204220000000     0.898240000000     0.291270000000     0.32588    
C193     C      0.165580000000     0.771290000000     0.042340000000    -0.0132165  
C194     C      0.119800000000     0.809590000000     0.043380000000    -0.10271    
C195     C      0.191140000000     0.797760000000     0.011690000000    -0.00152571 
C196     C      0.145770000000     0.839000000000     0.013640000000     0.327785   
C197     C      0.364130000000     0.900280000000     0.474150000000    -0.0144351  
C198     C      0.368220000000     0.975490000000     0.472920000000    -0.100057   
C199     C      0.350030000000     0.892790000000     0.437960000000    -0.00297919 
C200     C      0.350250000000     0.966350000000     0.437290000000     0.32583    
C201     C      0.778000000000     0.649400000000     0.459760000000    -0.0138418  
C202     C      0.823440000000     0.733150000000     0.459920000000    -0.0953819  
C203     C      0.802840000000     0.646570000000     0.429250000000    -0.00174057 
C204     C      0.845620000000     0.733240000000     0.426890000000     0.320374   
C205     C      0.901410000000     0.729390000000     0.178760000000    -0.0160071  
C206     C      0.855230000000     0.643280000000     0.180140000000    -0.0991976  
C207     C      0.927040000000     0.727920000000     0.209420000000    -0.00151757 
C208     C      0.884520000000     0.644030000000     0.209160000000     0.326086   
C209     C      0.711610000000     0.588430000000     0.273110000000    -0.0136617  
C210     C      0.716070000000     0.664490000000     0.274980000000    -0.0999759  
C211     C      0.698740000000     0.584540000000     0.236810000000    -0.00229361 
C212     C      0.697420000000     0.656620000000     0.239440000000     0.325942   
C213     C      0.052220000000     0.807690000000     0.358940000000    -0.0117697  
C214     C      0.052630000000     0.734150000000     0.359310000000    -0.0963059  
C215     C      0.002770000000     0.782890000000     0.369190000000    -0.00296089 
C216     C      0.001170000000     0.708700000000     0.366330000000     0.324151   
C217     C      0.886520000000     0.686560000000     0.760070000000     0.497671   
C218     C      0.833040000000     0.686950000000     0.877080000000     0.490189   
C219     C      0.779610000000     0.654600000000     0.795970000000     0.474705   
C220     C      0.938940000000     0.718400000000     0.841490000000     0.500664   
C221     C      0.220620000000     0.869000000000     0.841600000000     0.49724    
C222     C      0.176450000000     0.827840000000     0.961400000000     0.50388    
C223     C      0.117000000000     0.804180000000     0.882700000000     0.478732   
C224     C      0.281250000000     0.893700000000     0.919540000000     0.500861   
C225     C      0.505110000000     0.005190000000     0.561870000000     0.475099   
C226     C      0.534780000000     0.007060000000     0.939220000000     0.474162   
C227     C      0.604310000000     0.042560000000     0.513050000000     0.475284   
C228     C      0.436020000000     0.969500000000     0.988330000000     0.475474   
C229     C      0.179020000000     0.351660000000     0.714630000000     0.498775   
C230     C      0.213550000000     0.345180000000     0.593790000000     0.473563   
C231     C      0.279960000000     0.391400000000     0.665930000000     0.497755   
C232     C      0.110470000000     0.305110000000     0.642710000000     0.496233   
C233     C      0.862840000000     0.182980000000     0.533440000000     0.498459   
C234     C      0.826480000000     0.141990000000     0.654000000000     0.502638   
C235     C      0.761530000000     0.117770000000     0.579360000000     0.497789   
C236     C      0.929490000000     0.208710000000     0.606850000000     0.473521   
C237     C      0.554280000000     0.547820000000     0.654420000000     0.508038   
C238     C      0.529330000000     0.522600000000     0.777530000000     0.474596   
C239     C      0.456860000000     0.486980000000     0.707180000000     0.473909   
C240     C      0.626720000000     0.582970000000     0.725590000000     0.504527   
C241     C      0.157550000000     0.353640000000     0.844280000000     0.477601   
C242     C      0.206060000000     0.342650000000     0.960470000000     0.50315    
C243     C      0.223250000000     0.309050000000     0.878470000000     0.499231   
C244     C      0.142110000000     0.386870000000     0.926350000000     0.49784    
C245     C      0.342810000000     0.175760000000     0.875550000000     0.478078   
C246     C      0.344300000000     0.186480000000     0.751090000000     0.505368   
C247     C      0.304920000000     0.228420000000     0.817330000000     0.477144   
C248     C      0.381700000000     0.133790000000     0.810590000000     0.474065   
C249     C      0.019820000000     0.548980000000     0.932520000000     0.473994   
C250     C      0.026790000000     0.500650000000     0.549810000000     0.493096   
C251     C      0.058800000000     0.480500000000     0.968310000000     0.47475    
C252     C      0.986930000000     0.568410000000     0.513750000000     0.47383    
C253     C      0.682450000000     0.853890000000     0.601860000000     0.472276   
C254     C      0.676720000000     0.829960000000     0.725570000000     0.502432   
C255     C      0.717320000000     0.794570000000     0.656510000000     0.503301   
C256     C      0.641470000000     0.889150000000     0.670480000000     0.475475   
C257     C      0.868310000000     0.685400000000     0.628110000000     0.469474   
C258     C      0.821430000000     0.689780000000     0.509760000000     0.470469   
C259     C      0.798110000000     0.720830000000     0.589440000000     0.473079   
C260     C      0.893080000000     0.654380000000     0.548020000000     0.498218   
C261     C      0.484200000000     0.006510000000     0.691000000000     0.505351   
C262     C      0.540420000000     0.006490000000     0.806820000000     0.502194   
C263     C      0.555740000000     0.969560000000     0.727070000000     0.498212   
C264     C      0.468240000000     0.043570000000     0.769860000000     0.501262   
C265     C      0.347230000000     0.147380000000     0.501070000000     0.509443   
C266     C      0.349050000000     0.196960000000     0.618850000000     0.476682   
C267     C      0.383630000000     0.253510000000     0.540400000000     0.4966     
C268     C      0.313080000000     0.090340000000     0.577890000000     0.504357   
C269     C      0.517060000000     0.511720000000     0.526320000000     0.474425   
C270     C      0.488110000000     0.483100000000     0.903790000000     0.502118   
C271     C      0.457710000000     0.413020000000     0.476180000000     0.4741     
C272     C      0.547280000000     0.581770000000     0.953620000000     0.49805    
C273     C      0.217950000000     0.866930000000     0.708910000000     0.47459    
C274     C      0.163750000000     0.811580000000     0.592680000000     0.474264   
C275     C      0.148730000000     0.757560000000     0.671250000000     0.498467   
C276     C      0.232500000000     0.920170000000     0.631530000000     0.476069   
C277     C      0.027070000000     0.525660000000     0.802940000000     0.502985   
C278     C      0.029590000000     0.486470000000     0.682500000000     0.473455   
C279     C      0.992650000000     0.423640000000     0.757830000000     0.474319   
C280     C      0.065280000000     0.589790000000     0.728180000000     0.478074   
C281     C      0.847300000000     0.163840000000     0.785010000000     0.474464   
C282     C      0.888220000000     0.210620000000     0.904240000000     0.475712   
C283     C      0.914800000000     0.268320000000     0.826460000000     0.498982   
C284     C      0.819170000000     0.104910000000     0.863160000000     0.497415   
C285     C      0.686040000000     0.874340000000     0.971570000000     0.498189   
C286     C      0.677040000000     0.813380000000     0.856150000000     0.472844   
C287     C      0.642590000000     0.764640000000     0.937200000000     0.474339   
C288     C      0.721410000000     0.923670000000     0.890210000000     0.47239    
C289     C      0.791560000000     0.988290000000     0.867780000000    -0.0143118  
C290     C      0.718960000000     0.990280000000     0.867630000000    -0.0974051  
C291     C      0.816380000000     0.035230000000     0.883100000000    -0.00263152 
C292     C      0.744440000000     0.039100000000     0.880880000000     0.322887   
C293     C      0.923440000000     0.352630000000     0.773070000000    -0.0144573  
C294     C      0.998910000000     0.356340000000     0.773950000000    -0.0996672  
C295     C      0.916150000000     0.338240000000     0.809090000000    -0.00249465 
C296     C      0.988810000000     0.336220000000     0.809040000000     0.323411   
C297     C      0.059750000000     0.658440000000     0.715610000000    -0.0164562  
C298     C      0.135430000000     0.663480000000     0.720880000000    -0.101454   
C299     C      0.076260000000     0.687770000000     0.684300000000    -0.003051   
C300     C      0.150460000000     0.688130000000     0.688010000000     0.327426   
C301     C      0.645040000000     0.697030000000     0.957580000000    -0.0156983  
C302     C      0.572450000000     0.698680000000     0.958410000000    -0.101516   
C303     C      0.620710000000     0.650490000000     0.940680000000    -0.00355942 
C304     C      0.548320000000     0.653810000000     0.939990000000     0.327945   
C305     C      0.231830000000     0.991100000000     0.621160000000    -0.0137789  
C306     C      0.305110000000     0.990000000000     0.618420000000    -0.0991857  
C307     C      0.243740000000     0.017640000000     0.589080000000    -0.00284851 
C308     C      0.319010000000     0.020790000000     0.587910000000     0.325151   
C309     C      0.385210000000     0.342630000000     0.489850000000    -0.0155692  
C310     C      0.457980000000     0.341670000000     0.485850000000    -0.099872   
C311     C      0.376250000000     0.319780000000     0.523920000000    -0.0041671  
C312     C      0.452280000000     0.324090000000     0.521050000000     0.32595    
C313     C      0.716640000000     0.812660000000     0.805320000000    -0.0180229  
C314     C      0.632280000000     0.774260000000     0.806340000000    -0.100498   
C315     C      0.718510000000     0.844440000000     0.777870000000     0.00232736 
C316     C      0.632280000000     0.803360000000     0.777620000000     0.329005   
C317     C      0.728050000000     0.881000000000     0.550920000000    -0.0160853  
C318     C      0.641840000000     0.840510000000     0.549030000000    -0.0998449  
C319     C      0.729430000000     0.911120000000     0.522390000000    -0.000845741
C320     C      0.645250000000     0.874220000000     0.522680000000     0.326251   
C321     C      0.796710000000     0.788050000000     0.610370000000    -0.0146342  
C322     C      0.724730000000     0.712110000000     0.609380000000    -0.101614   
C323     C      0.788030000000     0.793100000000     0.646540000000    -0.0024492  
C324     C      0.714630000000     0.720720000000     0.644840000000     0.328349   
C325     C      0.645140000000     0.963240000000     0.679560000000    -0.0147011  
C326     C      0.570580000000     0.892480000000     0.673680000000    -0.0982734  
C327     C      0.628700000000     0.974640000000     0.711570000000    -0.00410891 
C328     C      0.554890000000     0.900180000000     0.706980000000     0.325379   
C329     C      0.977970000000     0.540600000000     0.880360000000    -0.0181696  
C330     C      0.062000000000     0.588290000000     0.882010000000    -0.0993295  
C331     C      0.980920000000     0.511560000000     0.852810000000     0.00116665 
C332     C      0.067180000000     0.558910000000     0.855620000000     0.326447   
C333     C      0.071050000000     0.488730000000     0.631580000000    -0.0185454  
C334     C      0.986860000000     0.444270000000     0.632940000000    -0.098482   
C335     C      0.070200000000     0.514770000000     0.601090000000     0.00172463 
C336     C      0.983480000000     0.465690000000     0.600620000000     0.324067   
C337     C      0.919100000000     0.565130000000     0.538550000000    -0.0143208  
C338     C      0.992560000000     0.638740000000     0.536760000000    -0.0964019  
C339     C      0.894090000000     0.588090000000     0.525120000000    -0.00183616 
C340     C      0.966480000000     0.663150000000     0.526700000000     0.322044   
C341     C      0.386030000000     0.194530000000     0.927770000000    -0.0126611  
C342     C      0.300440000000     0.144440000000     0.927510000000    -0.101913   
C343     C      0.389460000000     0.159590000000     0.949610000000    -0.005556   
C344     C      0.305390000000     0.110930000000     0.949560000000     0.32991    
C345     C      0.391310000000     0.234700000000     0.669850000000    -0.0119642  
C346     C      0.306800000000     0.197050000000     0.668440000000    -0.0978154  
C347     C      0.389190000000     0.207040000000     0.700080000000    -0.00334174 
C348     C      0.303040000000     0.167030000000     0.697750000000     0.324738   
C349     C      0.452460000000     0.129940000000     0.811160000000    -0.0134769  
C350     C      0.377590000000     0.058750000000     0.810730000000    -0.100815   
C351     C      0.468150000000     0.114190000000     0.781490000000    -0.00223241 
C352     C      0.394340000000     0.039280000000     0.783370000000     0.325463   
C353     C      0.050420000000     0.410710000000     0.942390000000    -0.0151945  
C354     C      0.126470000000     0.481930000000     0.944760000000    -0.10297    
C355     C      0.073320000000     0.382880000000     0.950810000000    -0.0031565  
C356     C      0.148310000000     0.454400000000     0.955260000000     0.328439   
C357     C      0.308640000000     0.302420000000     0.826720000000    -0.0138732  
C358     C      0.233990000000     0.231660000000     0.822250000000    -0.0990235  
C359     C      0.294740000000     0.312840000000     0.860220000000    -0.00516226 
C360     C      0.220160000000     0.239160000000     0.856460000000     0.32608    
C361     C      0.538800000000     0.489460000000     0.829080000000    -0.0149314  
C362     C      0.499030000000     0.535410000000     0.829340000000    -0.0993932  
C363     C      0.501700000000     0.454740000000     0.851530000000     0.000189055
C364     C      0.461500000000     0.499030000000     0.850980000000     0.325635   
C365     C      0.503050000000     0.539210000000     0.579020000000    -0.0162325  
C366     C      0.550760000000     0.501220000000     0.577160000000    -0.104027   
C367     C      0.537880000000     0.574820000000     0.602630000000    -0.00179241 
C368     C      0.584160000000     0.536720000000     0.601140000000     0.330845   
C369     C      0.925740000000     0.207630000000     0.955570000000    -0.0150441  
C370     C      0.879920000000     0.246000000000     0.955170000000    -0.0968643  
C371     C      0.894410000000     0.173810000000     0.981460000000    -0.00105245 
C372     C      0.849250000000     0.214890000000     0.982510000000     0.324356   
C373     C      0.815300000000     0.174770000000     0.733850000000    -0.0145399  
C374     C      0.861260000000     0.134390000000     0.733580000000    -0.0988932  
C375     C      0.788020000000     0.145500000000     0.704690000000    -0.00087643 
C376     C      0.831200000000     0.104390000000     0.705460000000     0.326417   
C377     C      0.117550000000     0.314290000000     0.793370000000    -0.0168666  
C378     C      0.164280000000     0.398170000000     0.794040000000    -0.0969733  
C379     C      0.147860000000     0.311340000000     0.766750000000     0.000988735
C380     C      0.193190000000     0.397440000000     0.765320000000     0.324831   
C381     C      0.255290000000     0.387490000000     0.544100000000    -0.0119104  
C382     C      0.216730000000     0.303550000000     0.544780000000    -0.0969685  
C383     C      0.234740000000     0.387080000000     0.510540000000    -0.00448531 
C384     C      0.192010000000     0.300430000000     0.512460000000     0.324033   
C385     C      0.003930000000     0.212690000000     0.611790000000    -0.0138703  
C386     C      0.999140000000     0.283810000000     0.611770000000    -0.101149   
C387     C      0.038910000000     0.231890000000     0.639530000000    -0.00339889 
C388     C      0.036320000000     0.304040000000     0.638250000000     0.325692   
C389     C      0.386950000000     0.411310000000     0.703030000000    -0.0152978  
C390     C      0.382160000000     0.482200000000     0.702100000000    -0.103111   
C391     C      0.352720000000     0.392210000000     0.674430000000    -0.0037571  
C392     C      0.352000000000     0.465420000000     0.671650000000     0.329648   
C393     C      0.516630000000     0.963050000000     0.887900000000    -0.0151071  
C394     C      0.558410000000     0.049190000000     0.886930000000    -0.0974683  
C395     C      0.541330000000     0.964020000000     0.856110000000    -0.000966559
C396     C      0.584760000000     0.048080000000     0.856710000000     0.324818   
C397     C      0.478810000000     0.963300000000     0.614490000000    -0.0130358  
C398     C      0.517260000000     0.049150000000     0.612870000000    -0.10092    
C399     C      0.446360000000     0.963000000000     0.640970000000    -0.00412927 
C400     C      0.484590000000     0.046840000000     0.639610000000     0.32774    
C401     C      0.672910000000     0.037000000000     0.527150000000    -0.0175352  
C402     C      0.675120000000     0.111450000000     0.529200000000    -0.103714   
C403     C      0.693340000000     0.045620000000     0.562160000000    -0.00278828 
C404     C      0.689380000000     0.116750000000     0.565270000000     0.330727   
C405     C      0.266720000000     0.875750000000     0.756880000000    -0.0206421  
C406     C      0.221520000000     0.914550000000     0.756180000000    -0.0980644  
C407     C      0.245690000000     0.852600000000     0.789540000000     0.00680455 
C408     C      0.204220000000     0.898250000000     0.791270000000     0.326008   
C409     C      0.165580000000     0.771290000000     0.542350000000    -0.0131432  
C410     C      0.119800000000     0.809590000000     0.543370000000    -0.102751   
C411     C      0.191140000000     0.797760000000     0.511690000000    -0.00169699 
C412     C      0.145770000000     0.839000000000     0.513640000000     0.32772    
C413     C      0.364130000000     0.900280000000     0.974150000000    -0.0144233  
C414     C      0.368220000000     0.975490000000     0.972920000000    -0.10006    
C415     C      0.350030000000     0.892790000000     0.937960000000    -0.00300483 
C416     C      0.350250000000     0.966350000000     0.937290000000     0.325825   
C417     C      0.778000000000     0.649400000000     0.959770000000    -0.0138074  
C418     C      0.823440000000     0.733150000000     0.959920000000    -0.0954318  
C419     C      0.802840000000     0.646570000000     0.929250000000    -0.00176392 
C420     C      0.845620000000     0.733240000000     0.926890000000     0.3205     
C421     C      0.901410000000     0.729390000000     0.678760000000    -0.0160039  
C422     C      0.855230000000     0.643280000000     0.680140000000    -0.0991927  
C423     C      0.927040000000     0.727920000000     0.709420000000    -0.00153019 
C424     C      0.884520000000     0.644030000000     0.709160000000     0.326075   
C425     C      0.711610000000     0.588430000000     0.773110000000    -0.01361    
C426     C      0.716070000000     0.664490000000     0.774980000000    -0.0998572  
C427     C      0.698750000000     0.584550000000     0.736810000000    -0.00230263 
C428     C      0.697420000000     0.656620000000     0.739440000000     0.325749   
C429     C      0.052220000000     0.807690000000     0.858940000000    -0.0117359  
C430     C      0.052630000000     0.734150000000     0.859310000000    -0.0962352  
C431     C      0.002770000000     0.782890000000     0.869190000000    -0.00299959 
C432     C      0.001170000000     0.708700000000     0.866330000000     0.323992   
F1       F      0.724740000000     0.062550000000     0.367420000000    -0.431995   
F2       F      0.007860000000     0.308880000000     0.312990000000    -0.440735   
F3       F      0.197320000000     0.715440000000     0.188740000000    -0.43283    
F4       F      0.502860000000     0.631610000000     0.948830000000    -0.422123   
F5       F      0.365660000000     0.049370000000     0.088440000000    -0.431666   
F6       F      0.475190000000     0.300180000000     0.024040000000    -0.435871   
F7       F      0.594720000000     0.777470000000     0.257920000000    -0.42653    
F8       F      0.606170000000     0.854570000000     0.003620000000    -0.439314   
F9       F      0.668130000000     0.700100000000     0.149620000000    -0.418087   
F10      F      0.508030000000     0.880730000000     0.205880000000    -0.431545   
F11      F      0.104450000000     0.586530000000     0.336140000000    -0.434167   
F12      F      0.949670000000     0.431850000000     0.081590000000    -0.430478   
F13      F      0.987340000000     0.705460000000     0.041450000000    -0.436184   
F14      F      0.267320000000     0.087460000000     0.469340000000    -0.425859   
F15      F      0.265430000000     0.158890000000     0.216340000000    -0.438165   
F16      F      0.377140000000     0.993650000000     0.289660000000    -0.43493    
F17      F      0.193440000000     0.477020000000     0.445570000000    -0.431444   
F18      F      0.173360000000     0.220210000000     0.356820000000    -0.431834   
F19      F      0.442560000000     0.518820000000     0.370350000000    -0.425677   
F20      F      0.605190000000     0.518700000000     0.120170000000    -0.437077   
F21      F      0.836920000000     0.239510000000     0.502950000000    -0.424761   
F22      F      0.855730000000     0.090130000000     0.186630000000    -0.44222    
F23      F      0.203700000000     0.433870000000     0.244790000000    -0.422562   
F24      F      0.188700000000     0.264590000000     0.994120000000    -0.434618   
F25      F      0.061810000000     0.350370000000     0.133330000000    -0.434898   
F26      F      0.324960000000     0.485220000000     0.171290000000    -0.422386   
F27      F      0.598410000000     0.087030000000     0.338310000000    -0.430985   
F28      F      0.504670000000     0.085860000000     0.158580000000    -0.430349   
F29      F      0.711800000000     0.162240000000     0.073520000000    -0.424513   
F30      F      0.207690000000     0.934660000000     0.308920000000    -0.429963   
F31      F      0.115720000000     0.845410000000     0.994360000000    -0.428635   
F32      F      0.324350000000     0.986760000000     0.431940000000    -0.425925   
F33      F      0.846480000000     0.767010000000     0.407320000000    -0.439163   
F34      F      0.859850000000     0.605290000000     0.227920000000    -0.437874   
F35      F      0.671240000000     0.676960000000     0.235240000000    -0.420005   
F36      F      0.981640000000     0.667480000000     0.350040000000    -0.437927   
F37      F      0.724740000000     0.062550000000     0.867420000000    -0.431988   
F38      F      0.007860000000     0.308880000000     0.812990000000    -0.44073    
F39      F      0.197320000000     0.715440000000     0.688740000000    -0.432832   
F40      F      0.502860000000     0.631610000000     0.448830000000    -0.422112   
F41      F      0.365660000000     0.049370000000     0.588440000000    -0.431669   
F42      F      0.475190000000     0.300180000000     0.524040000000    -0.435873   
F43      F      0.594720000000     0.777470000000     0.757910000000    -0.42646    
F44      F      0.606170000000     0.854570000000     0.503620000000    -0.439342   
F45      F      0.668130000000     0.700100000000     0.649620000000    -0.418007   
F46      F      0.508030000000     0.880730000000     0.705880000000    -0.431523   
F47      F      0.104450000000     0.586530000000     0.836140000000    -0.434166   
F48      F      0.949670000000     0.431850000000     0.581590000000    -0.43048    
F49      F      0.987340000000     0.705460000000     0.541450000000    -0.436126   
F50      F      0.267320000000     0.087460000000     0.969340000000    -0.425891   
F51      F      0.265430000000     0.158890000000     0.716340000000    -0.438161   
F52      F      0.377140000000     0.993650000000     0.789670000000    -0.434888   
F53      F      0.193440000000     0.477020000000     0.945570000000    -0.431456   
F54      F      0.173360000000     0.220210000000     0.856820000000    -0.431837   
F55      F      0.442560000000     0.518820000000     0.870350000000    -0.425678   
F56      F      0.605190000000     0.518700000000     0.620160000000    -0.43715    
F57      F      0.836920000000     0.239510000000     0.002950000000    -0.424684   
F58      F      0.855730000000     0.090130000000     0.686630000000    -0.442218   
F59      F      0.203700000000     0.433870000000     0.744790000000    -0.422564   
F60      F      0.188700000000     0.264590000000     0.494120000000    -0.434543   
F61      F      0.061810000000     0.350370000000     0.633330000000    -0.434903   
F62      F      0.324970000000     0.485220000000     0.671290000000    -0.422475   
F63      F      0.598410000000     0.087030000000     0.838310000000    -0.430982   
F64      F      0.504670000000     0.085860000000     0.658580000000    -0.430358   
F65      F      0.711800000000     0.162240000000     0.573520000000    -0.424524   
F66      F      0.207690000000     0.934660000000     0.808920000000    -0.430037   
F67      F      0.115720000000     0.845410000000     0.494360000000    -0.428571   
F68      F      0.324350000000     0.986760000000     0.931940000000    -0.425929   
F69      F      0.846480000000     0.767010000000     0.907330000000    -0.439232   
F70      F      0.859850000000     0.605290000000     0.727920000000    -0.437864   
F71      F      0.671230000000     0.676960000000     0.735240000000    -0.419916   
F72      F      0.981640000000     0.667470000000     0.850040000000    -0.437859   
H1       H      0.717390000000     0.991680000000     0.340270000000     0.0859526  
H2       H      0.795040000000     0.992050000000     0.340500000000     0.0441515  
H3       H      0.852630000000     0.051990000000     0.375550000000     0.0457847  
H4       H      0.683550000000     0.973100000000     0.377140000000     0.0873952  
H5       H      0.739640000000     0.037710000000     0.408080000000    -0.0055491  
H6       H      0.808280000000     0.969000000000     0.375770000000     0.0473587  
H7       H      0.815220000000     0.031410000000     0.410390000000     0.0376438  
H8       H      0.988360000000     0.328020000000     0.256160000000     0.0864622  
H9       H      0.908330000000     0.321730000000     0.257390000000     0.0449335  
H10      H      0.879080000000     0.319240000000     0.314160000000     0.0464354  
H11      H      0.036100000000     0.379240000000     0.271060000000     0.0903835  
H12      H      0.005760000000     0.364870000000     0.326700000000    -0.00612675 
H13      H      0.905260000000     0.371390000000     0.267670000000     0.048472   
H14      H      0.931390000000     0.369150000000     0.324760000000     0.0377144  
H15      H      0.146030000000     0.689090000000     0.240920000000     0.0920072  
H16      H      0.065320000000     0.681130000000     0.236940000000     0.0517518  
H17      H      0.061000000000     0.709960000000     0.183560000000     0.0475254  
H18      H      0.153340000000     0.644110000000     0.224800000000     0.103162   
H19      H      0.141440000000     0.662620000000     0.168090000000    -0.00480499 
H20      H      0.022620000000     0.634570000000     0.213610000000     0.0553988  
H21      H      0.062990000000     0.664830000000     0.162610000000     0.0403503  
H22      H      0.568140000000     0.691480000000     0.485340000000     0.0885435  
H23      H      0.644520000000     0.691590000000     0.484670000000     0.0437923  
H24      H      0.636300000000     0.630480000000     0.449480000000     0.0435681  
H25      H      0.556010000000     0.718930000000     0.452370000000     0.102301   
H26      H      0.550520000000     0.661240000000     0.413120000000     0.00355992 
H27      H      0.681100000000     0.715540000000     0.449470000000     0.0481947  
H28      H      0.626940000000     0.655700000000     0.413680000000     0.041318   
H29      H      0.320490000000     0.011670000000     0.140530000000     0.0902552  
H30      H      0.243330000000     0.015410000000     0.142110000000     0.04945    
H31      H      0.226260000000     0.037810000000     0.088760000000     0.0548091  
H32      H      0.319620000000     0.967240000000     0.116370000000     0.0872785  
H33      H      0.310550000000     0.998860000000     0.065720000000    -0.000812917
H34      H      0.194260000000     0.969690000000     0.122670000000     0.0512612  
H35      H      0.230280000000     0.993280000000     0.068180000000     0.0535402  
H36      H      0.442180000000     0.312190000000     0.468780000000     0.0775425  
H37      H      0.367990000000     0.315620000000     0.971000000000     0.045893   
H38      H      0.339150000000     0.296430000000     0.026870000000     0.0493603  
H39      H      0.494730000000     0.361630000000     0.479810000000     0.0910741  
H40      H      0.468360000000     0.353610000000     0.038040000000    -0.00416471 
H41      H      0.369700000000     0.364590000000     0.988890000000     0.0511049  
H42      H      0.386680000000     0.346610000000     0.042980000000     0.0385103  
H43      H      0.629250000000     0.742690000000     0.295940000000     0.0995301  
H44      H      0.715410000000     0.782490000000     0.293770000000     0.05634    
H45      H      0.748260000000     0.852840000000     0.261820000000     0.044209   
H46      H      0.602190000000     0.764430000000     0.322340000000     0.0928914  
H47      H      0.628530000000     0.831440000000     0.288110000000    -0.00310819 
H48      H      0.748000000000     0.830280000000     0.320510000000     0.0489278  
H49      H      0.723760000000     0.876370000000     0.289240000000     0.0392255  
H50      H      0.636790000000     0.809210000000     0.036680000000     0.0855356  
H51      H      0.732640000000     0.853430000000     0.040440000000     0.0427319  
H52      H      0.759890000000     0.920840000000     0.006840000000     0.0408775  
H53      H      0.611670000000     0.831430000000     0.064790000000     0.0884817  
H54      H      0.647660000000     0.904280000000     0.035340000000    -0.00996436 
H55      H      0.757300000000     0.901090000000     0.067630000000     0.0438774  
H56      H      0.732920000000     0.942700000000     0.033140000000     0.0348162  
H57      H      0.706160000000     0.722510000000     0.092140000000     0.0830206  
H58      H      0.782110000000     0.804690000000     0.094990000000     0.0417811  
H59      H      0.805720000000     0.829570000000     0.153180000000     0.0449684  
H60      H      0.711280000000     0.675270000000     0.105860000000     0.0921751  
H61      H      0.727960000000     0.704530000000     0.161890000000     0.00527713 
H62      H      0.833970000000     0.806040000000     0.106090000000     0.0460837  
H63      H      0.802850000000     0.776630000000     0.161880000000     0.038738   
H64      H      0.560120000000     0.908530000000     0.154280000000     0.0816825  
H65      H      0.638030000000     0.980070000000     0.158750000000     0.043167   
H66      H      0.643020000000     0.011870000000     0.212860000000     0.0496363  
H67      H      0.553170000000     0.855590000000     0.168460000000     0.0994775  
H68      H      0.563630000000     0.882610000000     0.226280000000     0.00714837 
H69      H      0.682500000000     0.977460000000     0.180820000000     0.0507137  
H70      H      0.643030000000     0.965030000000     0.232690000000     0.0440202  
H71      H      0.060270000000     0.616420000000     0.369470000000     0.0935437  
H72      H      0.974660000000     0.568340000000     0.368700000000     0.0656656  
H73      H      0.951900000000     0.501530000000     0.335650000000     0.0468682  
H74      H      0.092440000000     0.603290000000     0.398240000000     0.0879921  
H75      H      0.073670000000     0.533660000000     0.368120000000    -0.00434097 
H76      H      0.946950000000     0.520000000000     0.395400000000     0.0498558  
H77      H      0.976630000000     0.479930000000     0.364070000000     0.0368049  
H78      H      0.986660000000     0.412390000000     0.126780000000     0.097597   
H79      H      0.072690000000     0.458490000000     0.123310000000     0.0682768  
H80      H      0.099820000000     0.522020000000     0.085250000000     0.0484367  
H81      H      0.956310000000     0.434840000000     0.148310000000     0.0866897  
H82      H      0.972460000000     0.490540000000     0.106680000000    -0.00586171 
H83      H      0.102000000000     0.510700000000     0.146310000000     0.0569062  
H84      H      0.074440000000     0.547830000000     0.109180000000     0.0424942  
H85      H      0.997420000000     0.641580000000     0.063970000000     0.0845471  
H86      H      0.917680000000     0.565430000000     0.065960000000     0.0494339  
H87      H      0.858160000000     0.568740000000     0.033400000000     0.0470806  
H88      H      0.026750000000     0.656290000000     0.025110000000     0.0837614  
H89      H      0.969420000000     0.668000000000     0.999510000000    -0.00219777 
H90      H      0.901090000000     0.529190000000     0.030510000000     0.0549565  
H91      H      0.894080000000     0.586330000000     0.997710000000     0.0400442  
H92      H      0.294100000000     0.167190000000     0.443500000000     0.090433   
H93      H      0.386250000000     0.220990000000     0.443920000000     0.0447257  
H94      H      0.420340000000     0.177030000000     0.465320000000     0.0551742  
H95      H      0.270360000000     0.125850000000     0.411220000000     0.0972995  
H96      H      0.308080000000     0.086050000000     0.433360000000     0.015476   
H97      H      0.416410000000     0.210970000000     0.411520000000     0.046899   
H98      H      0.392860000000     0.135120000000     0.433420000000     0.0508356  
H99      H      0.307670000000     0.228040000000     0.178000000000     0.0807125  
H100     H      0.394530000000     0.267070000000     0.178610000000     0.0414825  
H101     H      0.418730000000     0.228160000000     0.216290000000     0.0452462  
H102     H      0.276180000000     0.178570000000     0.152610000000     0.0862905  
H103     H      0.297810000000     0.134210000000     0.188190000000    -0.00277741 
H104     H      0.422110000000     0.243090000000     0.155100000000     0.0520207  
H105     H      0.392810000000     0.178020000000     0.191570000000     0.0470721  
H106     H      0.383550000000     0.047250000000     0.334940000000     0.0989884  
H107     H      0.462750000000     0.119170000000     0.333950000000     0.0496902  
H108     H      0.505690000000     0.129860000000     0.283110000000     0.0575284  
H109     H      0.340340000000     0.044500000000     0.308050000000     0.101437   
H110     H      0.379760000000     0.042300000000     0.259590000000    -0.00192598 
H111     H      0.470070000000     0.167510000000     0.311100000000     0.0489805  
H112     H      0.460170000000     0.126980000000     0.258680000000     0.0496939  
H113     H      0.129350000000     0.486090000000     0.417490000000     0.0914831  
H114     H      0.046850000000     0.410870000000     0.415130000000     0.0482107  
H115     H      0.054630000000     0.349660000000     0.438040000000     0.0500205  
H116     H      0.145790000000     0.516160000000     0.955950000000     0.0962568  
H117     H      0.147500000000     0.452610000000     0.482680000000    -0.0035963  
H118     H      0.015710000000     0.393580000000     0.453190000000     0.0519476  
H119     H      0.070190000000     0.376370000000     0.477830000000     0.0441668  
H120     H      0.222330000000     0.247760000000     0.303740000000     0.0851194  
H121     H      0.299510000000     0.319400000000     0.307200000000     0.0448453  
H122     H      0.309920000000     0.350090000000     0.362580000000     0.0523372  
H123     H      0.216420000000     0.194810000000     0.316820000000     0.0998863  
H124     H      0.229540000000     0.220980000000     0.374810000000     0.00243918 
H125     H      0.346080000000     0.317000000000     0.326110000000     0.0461433  
H126     H      0.309890000000     0.301820000000     0.379910000000     0.0423209  
H127     H      0.524280000000     0.562680000000     0.345580000000     0.089232   
H128     H      0.567720000000     0.513270000000     0.344850000000     0.0437279  
H129     H      0.515890000000     0.438360000000     0.367590000000     0.0388386  
H130     H      0.483740000000     0.550340000000     0.312910000000     0.0950545  
H131     H      0.434630000000     0.473680000000     0.334530000000    -0.00564808 
H132     H      0.551410000000     0.472000000000     0.312680000000     0.043512   
H133     H      0.475150000000     0.427990000000     0.335680000000     0.0346092  
H134     H      0.526710000000     0.470900000000     0.091620000000     0.0861942  
H135     H      0.474940000000     0.512440000000     0.093860000000     0.0465277  
H136     H      0.520330000000     0.587460000000     0.118940000000     0.0542948  
H137     H      0.569540000000     0.490710000000     0.060240000000     0.0895776  
H138     H      0.610810000000     0.564900000000     0.086280000000    -0.00401811 
H139     H      0.488660000000     0.555550000000     0.063130000000     0.0541849  
H140     H      0.563600000000     0.603710000000     0.087770000000     0.0511843  
H141     H      0.908050000000     0.276730000000     0.466910000000     0.0860827  
H142     H      0.953950000000     0.237010000000     0.468490000000     0.0448081  
H143     H      0.914970000000     0.164420000000     0.497540000000     0.0419182  
H144     H      0.860560000000     0.257060000000     0.439300000000     0.0885097  
H145     H      0.817800000000     0.187770000000     0.470770000000    -0.000255437
H146     H      0.940560000000     0.191360000000     0.440070000000     0.0472734  
H147     H      0.868440000000     0.142690000000     0.468710000000     0.0401722  
H148     H      0.893310000000     0.162110000000     0.222960000000     0.0874704  
H149     H      0.841570000000     0.208270000000     0.224190000000     0.0461028  
H150     H      0.776330000000     0.164460000000     0.189010000000     0.0497029  
H151     H      0.870180000000     0.113720000000     0.249880000000     0.0864392  
H152     H      0.801570000000     0.074150000000     0.216430000000    -0.00820812 
H153     H      0.792260000000     0.180740000000     0.249870000000     0.052004   
H154     H      0.757250000000     0.115380000000     0.214630000000     0.0409035  
H155     H      0.135910000000     0.401660000000     0.283580000000     0.0930683  
H156     H      0.089290000000     0.316240000000     0.281100000000     0.0712611  
H157     H      0.126650000000     0.281570000000     0.250770000000     0.046941   
H158     H      0.184890000000     0.428200000000     0.309910000000     0.094453   
H159     H      0.225580000000     0.402240000000     0.275750000000     0.000891834
H160     H      0.102750000000     0.283140000000     0.308730000000     0.0659542  
H161     H      0.174070000000     0.305790000000     0.278840000000     0.0467608  
H162     H      0.249200000000     0.304530000000     0.038940000000     0.0825033  
H163     H      0.289050000000     0.390560000000     0.039820000000     0.0419261  
H164     H      0.261210000000     0.414960000000     0.995360000000     0.0563935  
H165     H      0.195350000000     0.272830000000     0.059830000000     0.0848428  
H166     H      0.157050000000     0.293180000000     0.018380000000    -0.00139944 
H167     H      0.261120000000     0.417880000000     0.058230000000     0.0543109  
H168     H      0.207110000000     0.395100000000     0.014360000000     0.0500518  
H169     H      0.015450000000     0.295830000000     0.087240000000     0.0891993  
H170     H      0.022250000000     0.220100000000     0.087840000000     0.0464621  
H171     H      0.061310000000     0.216940000000     0.137420000000     0.0485226  
H172     H      0.975580000000     0.297150000000     0.115480000000     0.093494   
H173     H      0.019350000000     0.298140000000     0.162670000000    -0.00429182 
H174     H      0.983760000000     0.175320000000     0.114700000000     0.0531288  
H175     H      0.020710000000     0.220880000000     0.163520000000     0.0450406  
H176     H      0.360110000000     0.472060000000     0.224380000000     0.0948004  
H177     H      0.367800000000     0.398610000000     0.226520000000     0.044163   
H178     H      0.331080000000     0.355040000000     0.177740000000     0.0454444  
H179     H      0.402050000000     0.519780000000     0.201390000000     0.100564   
H180     H      0.374140000000     0.477110000000     0.149430000000    -0.00600366 
H181     H      0.410690000000     0.397900000000     0.201200000000     0.0461689  
H182     H      0.372150000000     0.397890000000     0.151150000000     0.0377381  
H183     H      0.529780000000     0.053770000000     0.378580000000     0.0880348  
H184     H      0.481920000000     0.955950000000     0.381270000000     0.0479263  
H185     H      0.519340000000     0.933530000000     0.341050000000     0.0497527  
H186     H      0.581390000000     0.078900000000     0.402390000000     0.0908556  
H187     H      0.615580000000     0.047600000000     0.365390000000     0.0139634  
H188     H      0.512580000000     0.934390000000     0.403430000000     0.049623   
H189     H      0.572070000000     0.962250000000     0.363060000000     0.0448234  
H190     H      0.549610000000     0.056310000000     0.124890000000     0.0890269  
H191     H      0.506760000000     0.960960000000     0.126890000000     0.049951   
H192     H      0.435080000000     0.932800000000     0.157020000000     0.0560921  
H193     H      0.525150000000     0.078030000000     0.096190000000     0.0969461  
H194     H      0.454470000000     0.044820000000     0.127120000000     0.0139111  
H195     H      0.459960000000     0.932890000000     0.098590000000     0.0494171  
H196     H      0.415970000000     0.960350000000     0.128490000000     0.0460212  
H197     H      0.706200000000     0.127880000000     0.513600000000     0.0943787  
H198     H      0.701350000000     0.048830000000     0.009210000000     0.048171   
H199     H      0.716000000000     0.030960000000     0.064210000000     0.0450134  
H200     H      0.655760000000     0.129270000000     0.024790000000     0.100529   
H201     H      0.658120000000     0.099380000000     0.080640000000    -0.00479377 
H202     H      0.650410000000     0.000030000000     0.023370000000     0.0543685  
H203     H      0.664940000000     0.027210000000     0.079890000000     0.0389303  
H204     H      0.252480000000     0.948560000000     0.257950000000     0.0972918  
H205     H      0.298070000000     0.908480000000     0.262100000000     0.0754895  
H206     H      0.271740000000     0.849410000000     0.304080000000     0.052111   
H207     H      0.195740000000     0.918820000000     0.242200000000     0.0836538  
H208     H      0.167540000000     0.872410000000     0.289640000000    -0.00778607 
H209     H      0.276230000000     0.853950000000     0.242520000000     0.060402   
H210     H      0.217360000000     0.817800000000     0.284400000000     0.0469087  
H211     H      0.089470000000     0.778360000000     0.034210000000     0.109321   
H212     H      0.135730000000     0.739030000000     0.034060000000     0.0445689  
H213     H      0.197010000000     0.774930000000     0.995420000000     0.0434893  
H214     H      0.107980000000     0.828390000000     0.059090000000     0.0954705  
H215     H      0.172620000000     0.872560000000     0.022770000000    -0.00033795 
H216     H      0.187630000000     0.762560000000     0.057220000000     0.0473816  
H217     H      0.225120000000     0.825460000000     0.019540000000     0.0388856  
H218     H      0.338730000000     0.964180000000     0.489820000000     0.0915859  
H219     H      0.332900000000     0.885480000000     0.489590000000     0.0431274  
H220     H      0.329940000000     0.855820000000     0.433180000000     0.0474711  
H221     H      0.390850000000     0.012470000000     0.476560000000     0.0958544  
H222     H      0.380140000000     0.982610000000     0.420550000000    -0.00169415 
H223     H      0.382660000000     0.882000000000     0.980010000000     0.0488917  
H224     H      0.381220000000     0.906880000000     0.422500000000     0.042008   
H225     H      0.793050000000     0.736340000000     0.454580000000     0.0812509  
H226     H      0.747490000000     0.650850000000     0.451580000000     0.0406483  
H227     H      0.778490000000     0.617170000000     0.414090000000     0.0409901  
H228     H      0.847260000000     0.763360000000     0.474560000000     0.0830897  
H229     H      0.881420000000     0.742540000000     0.431910000000    -0.00244266 
H230     H      0.766490000000     0.618300000000     0.474810000000     0.0441734  
H231     H      0.830320000000     0.640020000000     0.437310000000     0.0433358  
H232     H      0.822710000000     0.638980000000     0.189910000000     0.0848097  
H233     H      0.875280000000     0.737910000000     0.186790000000     0.0421845  
H234     H      0.937570000000     0.758760000000     0.224570000000     0.0427904  
H235     H      0.847010000000     0.613460000000     0.164360000000     0.0877334  
H236     H      0.914780000000     0.643720000000     0.199020000000    -0.00588624 
H237     H      0.925620000000     0.757440000000     0.162570000000     0.0465861  
H238     H      0.958560000000     0.728710000000     0.200950000000     0.0374445  
H239     H      0.687040000000     0.654130000000     0.292180000000     0.0838307  
H240     H      0.679980000000     0.571330000000     0.288080000000     0.0428556  
H241     H      0.680280000000     0.548320000000     0.229510000000     0.0544955  
H242     H      0.739800000000     0.701220000000     0.278810000000     0.0858468  
H243     H      0.727030000000     0.673510000000     0.222500000000    -0.0019347  
H244     H      0.730770000000     0.570340000000     0.277210000000     0.0544601  
H245     H      0.730480000000     0.601680000000     0.221920000000     0.0477449  
H246     H      0.057780000000     0.732950000000     0.332310000000     0.0877486  
H247     H      0.053940000000     0.810710000000     0.331580000000     0.0491056  
H248     H      0.986670000000     0.802500000000     0.360570000000     0.0543308  
H249     H      0.068120000000     0.716130000000     0.371860000000     0.0868227  
H250     H      0.996180000000     0.702020000000     0.393290000000    -0.00284588 
H251     H      0.068550000000     0.842500000000     0.369270000000     0.0610136  
H252     H      0.001180000000     0.782030000000     0.396620000000     0.0524499  
H253     H      0.717390000000     0.991680000000     0.840270000000     0.0859573  
H254     H      0.795040000000     0.992050000000     0.840500000000     0.0441555  
H255     H      0.852630000000     0.051990000000     0.875550000000     0.0457884  
H256     H      0.683550000000     0.973100000000     0.877140000000     0.0873923  
H257     H      0.739640000000     0.037710000000     0.908080000000    -0.00556232 
H258     H      0.808280000000     0.969000000000     0.875760000000     0.0473527  
H259     H      0.815220000000     0.031410000000     0.910390000000     0.0376323  
H260     H      0.988360000000     0.328020000000     0.756160000000     0.0864633  
H261     H      0.908330000000     0.321730000000     0.757380000000     0.0449232  
H262     H      0.879080000000     0.319240000000     0.814160000000     0.0464478  
H263     H      0.036100000000     0.379240000000     0.771060000000     0.090383   
H264     H      0.005760000000     0.364870000000     0.826700000000    -0.00612196 
H265     H      0.905260000000     0.371390000000     0.767670000000     0.0484677  
H266     H      0.931390000000     0.369150000000     0.824760000000     0.0377187  
H267     H      0.146030000000     0.689090000000     0.740920000000     0.0920081  
H268     H      0.065320000000     0.681130000000     0.736950000000     0.0517496  
H269     H      0.061000000000     0.709960000000     0.683560000000     0.0475262  
H270     H      0.153340000000     0.644110000000     0.724800000000     0.103162   
H271     H      0.141440000000     0.662620000000     0.668090000000    -0.00480682 
H272     H      0.022630000000     0.634580000000     0.713610000000     0.0554022  
H273     H      0.062990000000     0.664830000000     0.662610000000     0.0403501  
H274     H      0.568140000000     0.691480000000     0.985340000000     0.0885227  
H275     H      0.644530000000     0.691590000000     0.984670000000     0.0437647  
H276     H      0.636300000000     0.630470000000     0.949480000000     0.0435534  
H277     H      0.556010000000     0.718930000000     0.952370000000     0.102288   
H278     H      0.550520000000     0.661240000000     0.913120000000     0.00355936 
H279     H      0.681100000000     0.715540000000     0.949470000000     0.0481846  
H280     H      0.626940000000     0.655690000000     0.913680000000     0.0413109  
H281     H      0.320490000000     0.011670000000     0.640530000000     0.0902504  
H282     H      0.243330000000     0.015410000000     0.642110000000     0.0494499  
H283     H      0.226260000000     0.037810000000     0.588760000000     0.0548039  
H284     H      0.319620000000     0.967240000000     0.616380000000     0.0872734  
H285     H      0.310550000000     0.998850000000     0.565720000000    -0.000802259
H286     H      0.194260000000     0.969690000000     0.622670000000     0.0512591  
H287     H      0.230280000000     0.993280000000     0.568180000000     0.0535275  
H288     H      0.442180000000     0.312190000000     0.968780000000     0.0775445  
H289     H      0.367990000000     0.315620000000     0.471000000000     0.0458982  
H290     H      0.339150000000     0.296430000000     0.526860000000     0.0493388  
H291     H      0.494730000000     0.361630000000     0.979810000000     0.091076   
H292     H      0.468360000000     0.353610000000     0.538050000000    -0.0041197  
H293     H      0.369700000000     0.364590000000     0.488890000000     0.051116   
H294     H      0.386690000000     0.346620000000     0.542980000000     0.0384899  
H295     H      0.629250000000     0.742690000000     0.795940000000     0.0995183  
H296     H      0.715400000000     0.782490000000     0.793770000000     0.0563507  
H297     H      0.748260000000     0.852840000000     0.761820000000     0.0442199  
H298     H      0.602190000000     0.764430000000     0.822340000000     0.0928704  
H299     H      0.628530000000     0.831440000000     0.788110000000    -0.00307773 
H300     H      0.748000000000     0.830280000000     0.820510000000     0.0489328  
H301     H      0.723760000000     0.876370000000     0.789240000000     0.0392404  
H302     H      0.636790000000     0.809210000000     0.536680000000     0.0855136  
H303     H      0.732640000000     0.853430000000     0.540440000000     0.0427217  
H304     H      0.759900000000     0.920840000000     0.506840000000     0.0408328  
H305     H      0.611670000000     0.831430000000     0.564790000000     0.0884816  
H306     H      0.647660000000     0.904280000000     0.535340000000    -0.00996825 
H307     H      0.757290000000     0.901090000000     0.567630000000     0.043889   
H308     H      0.732920000000     0.942700000000     0.533140000000     0.0347986  
H309     H      0.706160000000     0.722510000000     0.592140000000     0.0829998  
H310     H      0.782110000000     0.804690000000     0.594990000000     0.0418041  
H311     H      0.805720000000     0.829570000000     0.653180000000     0.0449538  
H312     H      0.711280000000     0.675260000000     0.605870000000     0.0921428  
H313     H      0.727960000000     0.704530000000     0.661890000000     0.00528457 
H314     H      0.833970000000     0.806040000000     0.606090000000     0.046123   
H315     H      0.802850000000     0.776630000000     0.661880000000     0.038725   
H316     H      0.560120000000     0.908530000000     0.654280000000     0.0816889  
H317     H      0.638030000000     0.980070000000     0.658750000000     0.0431516  
H318     H      0.643020000000     0.011870000000     0.712860000000     0.0496496  
H319     H      0.553170000000     0.855590000000     0.668460000000     0.0994763  
H320     H      0.563630000000     0.882610000000     0.726280000000     0.00711609 
H321     H      0.682500000000     0.977470000000     0.680820000000     0.050693   
H322     H      0.643030000000     0.965030000000     0.732690000000     0.0440309  
H323     H      0.060270000000     0.616420000000     0.869470000000     0.093544   
H324     H      0.974660000000     0.568340000000     0.868700000000     0.0656689  
H325     H      0.951900000000     0.501530000000     0.835650000000     0.0468687  
H326     H      0.092440000000     0.603290000000     0.898240000000     0.087995   
H327     H      0.073670000000     0.533660000000     0.868120000000    -0.00433945 
H328     H      0.946950000000     0.520000000000     0.895400000000     0.0498498  
H329     H      0.976630000000     0.479930000000     0.864070000000     0.0368032  
H330     H      0.986660000000     0.412390000000     0.626780000000     0.0975917  
H331     H      0.072690000000     0.458490000000     0.623310000000     0.0682717  
H332     H      0.099820000000     0.522020000000     0.585250000000     0.048426   
H333     H      0.956310000000     0.434840000000     0.648310000000     0.0866867  
H334     H      0.972450000000     0.490540000000     0.606680000000    -0.00581392 
H335     H      0.102000000000     0.510700000000     0.646310000000     0.0569041  
H336     H      0.074440000000     0.547830000000     0.609180000000     0.0424946  
H337     H      0.997420000000     0.641580000000     0.563970000000     0.0845323  
H338     H      0.917680000000     0.565430000000     0.565970000000     0.0493907  
H339     H      0.858160000000     0.568740000000     0.533400000000     0.0471015  
H340     H      0.026750000000     0.656290000000     0.525110000000     0.083718   
H341     H      0.969420000000     0.668000000000     0.499500000000    -0.0021025  
H342     H      0.901090000000     0.529190000000     0.530510000000     0.0549034  
H343     H      0.894080000000     0.586330000000     0.497710000000     0.0401417  
H344     H      0.294100000000     0.167190000000     0.943500000000     0.0904163  
H345     H      0.386250000000     0.220990000000     0.943920000000     0.044709   
H346     H      0.420340000000     0.177030000000     0.965320000000     0.055151   
H347     H      0.270360000000     0.125850000000     0.911220000000     0.097291   
H348     H      0.308080000000     0.086050000000     0.933360000000     0.0154697  
H349     H      0.416410000000     0.210970000000     0.911520000000     0.0469009  
H350     H      0.392850000000     0.135120000000     0.933420000000     0.0508416  
H351     H      0.307670000000     0.228040000000     0.678000000000     0.0807141  
H352     H      0.394530000000     0.267070000000     0.678610000000     0.0414826  
H353     H      0.418730000000     0.228160000000     0.716290000000     0.0452451  
H354     H      0.276180000000     0.178570000000     0.652610000000     0.0862897  
H355     H      0.297810000000     0.134210000000     0.688190000000    -0.00277813 
H356     H      0.422110000000     0.243090000000     0.655100000000     0.0520252  
H357     H      0.392810000000     0.178020000000     0.691570000000     0.0470736  
H358     H      0.383550000000     0.047250000000     0.834940000000     0.0989816  
H359     H      0.462750000000     0.119170000000     0.833950000000     0.0496936  
H360     H      0.505690000000     0.129860000000     0.783110000000     0.0575421  
H361     H      0.340340000000     0.044500000000     0.808050000000     0.101413   
H362     H      0.379760000000     0.042300000000     0.759590000000    -0.0019944  
H363     H      0.470070000000     0.167510000000     0.811090000000     0.0489748  
H364     H      0.460170000000     0.126980000000     0.758680000000     0.0496995  
H365     H      0.129350000000     0.486090000000     0.917490000000     0.091502   
H366     H      0.046850000000     0.410870000000     0.915130000000     0.0481972  
H367     H      0.054630000000     0.349660000000     0.938040000000     0.0500326  
H368     H      0.145790000000     0.516170000000     0.455950000000     0.0962363  
H369     H      0.147500000000     0.452610000000     0.982680000000    -0.00361996 
H370     H      0.015710000000     0.393580000000     0.953190000000     0.0519183  
H371     H      0.070190000000     0.376370000000     0.977830000000     0.044165   
H372     H      0.222330000000     0.247760000000     0.803740000000     0.0851227  
H373     H      0.299510000000     0.319400000000     0.807200000000     0.0448462  
H374     H      0.309920000000     0.350090000000     0.862580000000     0.0523363  
H375     H      0.216420000000     0.194810000000     0.816820000000     0.0998856  
H376     H      0.229540000000     0.220980000000     0.874810000000     0.00242819 
H377     H      0.346080000000     0.317000000000     0.826110000000     0.0461413  
H378     H      0.309890000000     0.301820000000     0.879910000000     0.042314   
H379     H      0.524280000000     0.562680000000     0.845580000000     0.0892346  
H380     H      0.567720000000     0.513270000000     0.844850000000     0.043731   
H381     H      0.515890000000     0.438360000000     0.867590000000     0.0388332  
H382     H      0.483740000000     0.550340000000     0.812910000000     0.0950585  
H383     H      0.434630000000     0.473680000000     0.834530000000    -0.00564888 
H384     H      0.551410000000     0.472000000000     0.812680000000     0.0435152  
H385     H      0.475150000000     0.427990000000     0.835670000000     0.0345997  
H386     H      0.526710000000     0.470890000000     0.591620000000     0.0861725  
H387     H      0.474940000000     0.512440000000     0.593860000000     0.0465306  
H388     H      0.520330000000     0.587460000000     0.618940000000     0.0542641  
H389     H      0.569540000000     0.490710000000     0.560240000000     0.0895607  
H390     H      0.610810000000     0.564900000000     0.586280000000    -0.00404892 
H391     H      0.488660000000     0.555550000000     0.563130000000     0.0541757  
H392     H      0.563600000000     0.603710000000     0.587770000000     0.0511448  
H393     H      0.908050000000     0.276730000000     0.966910000000     0.0860569  
H394     H      0.953950000000     0.237000000000     0.968490000000     0.0447951  
H395     H      0.914960000000     0.164420000000     0.997540000000     0.0419123  
H396     H      0.860560000000     0.257060000000     0.939300000000     0.08849    
H397     H      0.817800000000     0.187770000000     0.970770000000    -0.000251705
H398     H      0.940550000000     0.191360000000     0.940070000000     0.0472771  
H399     H      0.868440000000     0.142690000000     0.968710000000     0.0401712  
H400     H      0.893320000000     0.162110000000     0.722960000000     0.0874485  
H401     H      0.841570000000     0.208270000000     0.724190000000     0.0461021  
H402     H      0.776330000000     0.164460000000     0.689010000000     0.0496981  
H403     H      0.870180000000     0.113720000000     0.749880000000     0.0864323  
H404     H      0.801570000000     0.074150000000     0.716430000000    -0.00820107 
H405     H      0.792260000000     0.180740000000     0.749870000000     0.0520146  
H406     H      0.757250000000     0.115380000000     0.714630000000     0.0409077  
H407     H      0.135910000000     0.401660000000     0.783580000000     0.0930678  
H408     H      0.089290000000     0.316240000000     0.781100000000     0.0712631  
H409     H      0.126650000000     0.281570000000     0.750770000000     0.0469401  
H410     H      0.184890000000     0.428200000000     0.809910000000     0.0944526  
H411     H      0.225580000000     0.402240000000     0.775750000000     0.000893709
H412     H      0.102750000000     0.283140000000     0.808730000000     0.0659564  
H413     H      0.174070000000     0.305790000000     0.778840000000     0.0467598  
H414     H      0.249200000000     0.304530000000     0.538940000000     0.0824853  
H415     H      0.289050000000     0.390560000000     0.539820000000     0.0418786  
H416     H      0.261210000000     0.414960000000     0.495360000000     0.0564894  
H417     H      0.195350000000     0.272830000000     0.559830000000     0.0848304  
H418     H      0.157050000000     0.293180000000     0.518380000000    -0.00139932 
H419     H      0.261120000000     0.417880000000     0.558230000000     0.0542697  
H420     H      0.207110000000     0.395100000000     0.514360000000     0.0500632  
H421     H      0.015450000000     0.295830000000     0.587240000000     0.0891864  
H422     H      0.022250000000     0.220100000000     0.587840000000     0.0464504  
H423     H      0.061310000000     0.216940000000     0.637420000000     0.0485206  
H424     H      0.975580000000     0.297150000000     0.615480000000     0.0934886  
H425     H      0.019350000000     0.298140000000     0.662670000000    -0.00429079 
H426     H      0.983760000000     0.175320000000     0.614700000000     0.053123   
H427     H      0.020710000000     0.220880000000     0.663520000000     0.0450411  
H428     H      0.360110000000     0.472060000000     0.724380000000     0.0947934  
H429     H      0.367800000000     0.398610000000     0.726520000000     0.0441706  
H430     H      0.331080000000     0.355040000000     0.677740000000     0.0454409  
H431     H      0.402050000000     0.519780000000     0.701390000000     0.100555   
H432     H      0.374140000000     0.477110000000     0.649430000000    -0.0061077  
H433     H      0.410690000000     0.397900000000     0.701200000000     0.0461725  
H434     H      0.372150000000     0.397890000000     0.651150000000     0.0377301  
H435     H      0.529780000000     0.053770000000     0.878580000000     0.0880359  
H436     H      0.481920000000     0.955950000000     0.881270000000     0.0479249  
H437     H      0.519340000000     0.933530000000     0.841050000000     0.0497521  
H438     H      0.581380000000     0.078900000000     0.902390000000     0.0908638  
H439     H      0.615580000000     0.047600000000     0.865390000000     0.013965   
H440     H      0.512580000000     0.934390000000     0.903430000000     0.0496176  
H441     H      0.572070000000     0.962250000000     0.863060000000     0.0448221  
H442     H      0.549610000000     0.056310000000     0.624890000000     0.0890168  
H443     H      0.506760000000     0.960960000000     0.626890000000     0.0499582  
H444     H      0.435080000000     0.932800000000     0.657020000000     0.0560909  
H445     H      0.525150000000     0.078030000000     0.596190000000     0.0969424  
H446     H      0.454470000000     0.044820000000     0.627120000000     0.0139003  
H447     H      0.459960000000     0.932890000000     0.598590000000     0.0493995  
H448     H      0.415970000000     0.960350000000     0.628490000000     0.04601    
H449     H      0.706200000000     0.127880000000     0.013600000000     0.094406   
H450     H      0.701350000000     0.048830000000     0.509210000000     0.0481479  
H451     H      0.716000000000     0.030960000000     0.564210000000     0.0450068  
H452     H      0.655760000000     0.129270000000     0.524790000000     0.100514   
H453     H      0.658120000000     0.099380000000     0.580640000000    -0.00475172 
H454     H      0.650410000000     0.000030000000     0.523370000000     0.0543584  
H455     H      0.664940000000     0.027210000000     0.579890000000     0.0389312  
H456     H      0.252480000000     0.948560000000     0.757950000000     0.0973013  
H457     H      0.298070000000     0.908480000000     0.762100000000     0.0754909  
H458     H      0.271740000000     0.849410000000     0.804090000000     0.0521103  
H459     H      0.195740000000     0.918820000000     0.742200000000     0.0836645  
H460     H      0.167540000000     0.872410000000     0.789650000000    -0.00780549 
H461     H      0.276230000000     0.853950000000     0.742520000000     0.0604054  
H462     H      0.217360000000     0.817800000000     0.784400000000     0.0469028  
H463     H      0.089470000000     0.778360000000     0.534210000000     0.109326   
H464     H      0.135730000000     0.739030000000     0.534060000000     0.0445322  
H465     H      0.197010000000     0.774930000000     0.495420000000     0.0435769  
H466     H      0.107980000000     0.828390000000     0.559090000000     0.0954628  
H467     H      0.172620000000     0.872560000000     0.522770000000    -0.000346862
H468     H      0.187630000000     0.762560000000     0.557220000000     0.0473533  
H469     H      0.225120000000     0.825460000000     0.519540000000     0.0388946  
H470     H      0.338730000000     0.964180000000     0.989820000000     0.0915709  
H471     H      0.332900000000     0.885480000000     0.989590000000     0.0431083  
H472     H      0.329940000000     0.855820000000     0.933180000000     0.0474735  
H473     H      0.390850000000     0.012470000000     0.976560000000     0.0958432  
H474     H      0.380140000000     0.982610000000     0.920550000000    -0.00169349 
H475     H      0.382660000000     0.882000000000     0.480000000000     0.048907   
H476     H      0.381220000000     0.906880000000     0.922510000000     0.0420127  
H477     H      0.793050000000     0.736340000000     0.954580000000     0.081255   
H478     H      0.747490000000     0.650850000000     0.951580000000     0.0406274  
H479     H      0.778490000000     0.617170000000     0.914090000000     0.0409943  
H480     H      0.847250000000     0.763360000000     0.974560000000     0.0830784  
H481     H      0.881420000000     0.742540000000     0.931910000000    -0.00247789 
H482     H      0.766490000000     0.618300000000     0.974810000000     0.0441398  
H483     H      0.830320000000     0.640020000000     0.937310000000     0.0433313  
H484     H      0.822710000000     0.638980000000     0.689910000000     0.0848113  
H485     H      0.875280000000     0.737910000000     0.686790000000     0.042189   
H486     H      0.937570000000     0.758760000000     0.724570000000     0.0427969  
H487     H      0.847010000000     0.613460000000     0.664360000000     0.0877328  
H488     H      0.914780000000     0.643720000000     0.699020000000    -0.0058825  
H489     H      0.925620000000     0.757440000000     0.662570000000     0.0465877  
H490     H      0.958560000000     0.728710000000     0.700950000000     0.0374464  
H491     H      0.687030000000     0.654130000000     0.792180000000     0.0837892  
H492     H      0.679980000000     0.571330000000     0.788080000000     0.0428497  
H493     H      0.680280000000     0.548320000000     0.729510000000     0.0544966  
H494     H      0.739800000000     0.701220000000     0.778810000000     0.0858043  
H495     H      0.727030000000     0.673510000000     0.722500000000    -0.00189779 
H496     H      0.730780000000     0.570340000000     0.777210000000     0.0544472  
H497     H      0.730480000000     0.601680000000     0.721920000000     0.0477469  
H498     H      0.057780000000     0.732940000000     0.832310000000     0.0877258  
H499     H      0.053930000000     0.810710000000     0.831580000000     0.0490938  
H500     H      0.986680000000     0.802500000000     0.860570000000     0.0543358  
H501     H      0.068120000000     0.716130000000     0.871860000000     0.0868041  
H502     H      0.996180000000     0.702020000000     0.893290000000    -0.00281006 
H503     H      0.068550000000     0.842500000000     0.869280000000     0.0610006  
H504     H      0.001190000000     0.782030000000     0.896620000000     0.0524575  
N1       N      0.793790000000     0.061010000000     0.373870000000    -0.206388   
N2       N      0.743090000000     0.965990000000     0.376500000000    -0.168572   
N3       N      0.939310000000     0.312220000000     0.315700000000    -0.207784   
N4       N      0.972630000000     0.379180000000     0.266990000000    -0.167382   
N5       N      0.126420000000     0.713620000000     0.182130000000    -0.207925   
N6       N      0.085670000000     0.635020000000     0.221180000000    -0.164175   
N7       N      0.571120000000     0.627190000000     0.446560000000    -0.206058   
N8       N      0.621130000000     0.722040000000     0.450410000000    -0.166281   
N9       N      0.293480000000     0.045450000000     0.086050000000    -0.203504   
N10      N      0.255370000000     0.964800000000     0.122640000000    -0.167606   
N11      N      0.403170000000     0.296970000000     0.028700000000    -0.208327   
N12      N      0.434300000000     0.367630000000     0.982800000000    -0.168792   
N13      N      0.675580000000     0.823490000000     0.258950000000    -0.204354   
N14      N      0.675190000000     0.798490000000     0.324630000000    -0.165688   
N15      N      0.686940000000     0.888140000000     0.003390000000    -0.209226   
N16      N      0.684090000000     0.860170000000     0.068520000000    -0.168068   
N17      N      0.738560000000     0.769910000000     0.151510000000    -0.204979   
N18      N      0.773860000000     0.739420000000     0.102140000000    -0.168975   
N19      N      0.578530000000     0.949260000000     0.214440000000    -0.206781   
N20      N      0.620310000000     0.914080000000     0.173950000000    -0.1672     
N21      N      0.025290000000     0.534610000000     0.335640000000    -0.205364   
N22      N      0.019610000000     0.560450000000     0.400220000000    -0.165074   
N23      N      0.027160000000     0.489940000000     0.082410000000    -0.202529   
N24      N      0.029260000000     0.474260000000     0.150360000000    -0.163277   
N25      N      0.917640000000     0.635960000000     0.035310000000    -0.205971   
N26      N      0.966860000000     0.590400000000     0.027960000000    -0.167485   
N27      N      0.347410000000     0.135680000000     0.468960000000    -0.204187   
N28      N      0.343000000000     0.172130000000     0.409020000000    -0.168535   
N29      N      0.345300000000     0.188990000000     0.217470000000    -0.208047   
N30      N      0.349210000000     0.210000000000     0.150690000000    -0.168743   
N31      N      0.444610000000     0.064250000000     0.280210000000    -0.202196   
N32      N      0.402790000000     0.108530000000     0.310210000000    -0.16608    
N33      N      0.121910000000     0.407890000000     0.441980000000    -0.206942   
N34      N      0.078080000000     0.457880000000     0.453880000000    -0.166022   
N35      N      0.244750000000     0.288110000000     0.364560000000    -0.204972   
N36      N      0.283710000000     0.253330000000     0.320800000000    -0.166598   
N37      N      0.481260000000     0.476710000000     0.370580000000    -0.209684   
N38      N      0.522030000000     0.515500000000     0.310640000000    -0.168454   
N39      N      0.560350000000     0.554440000000     0.121170000000    -0.204918   
N40      N      0.524520000000     0.518470000000     0.059450000000    -0.167358   
N41      N      0.871220000000     0.193130000000     0.500680000000    -0.206654   
N42      N      0.899300000000     0.222920000000     0.436410000000    -0.168215   
N43      N      0.815070000000     0.130210000000     0.186260000000    -0.20938    
N44      N      0.838400000000     0.154560000000     0.252190000000    -0.166214   
N45      N      0.170680000000     0.353660000000     0.247390000000    -0.205136   
N46      N      0.145070000000     0.355590000000     0.312570000000    -0.161068   
N47      N      0.215370000000     0.343020000000     0.993320000000    -0.204356   
N48      N      0.226530000000     0.345230000000     0.061930000000    -0.168019   
N49      N      0.064210000000     0.281780000000     0.138270000000    -0.205546   
N50      N      0.975410000000     0.233940000000     0.111990000000    -0.165815   
N51      N      0.325860000000     0.415300000000     0.171750000000    -0.206738   
N52      N      0.410790000000     0.461190000000     0.203380000000    -0.167241   
N53      N      0.555640000000     0.006400000000     0.338050000000    -0.205526   
N54      N      0.539890000000     0.006600000000     0.405810000000    -0.166033   
N55      N      0.469830000000     0.005710000000     0.159420000000    -0.205916   
N56      N      0.498550000000     0.005600000000     0.095080000000    -0.166177   
N57      N      0.716680000000     0.094400000000     0.070220000000    -0.207874   
N58      N      0.649210000000     0.062780000000     0.021600000000    -0.165626   
N59      N      0.227830000000     0.877370000000     0.308480000000    -0.200548   
N60      N      0.233890000000     0.884130000000     0.239550000000    -0.164301   
N61      N      0.167510000000     0.818200000000     0.994220000000    -0.205364   
N62      N      0.149490000000     0.797180000000     0.061220000000    -0.165632   
N63      N      0.325270000000     0.917030000000     0.430520000000    -0.205603   
N64      N      0.391000000000     0.949320000000     0.480210000000    -0.167448   
N65      N      0.823160000000     0.688800000000     0.409690000000    -0.20298    
N66      N      0.808530000000     0.690750000000     0.477920000000    -0.167836   
N67      N      0.899460000000     0.685960000000     0.228110000000    -0.207044   
N68      N      0.878230000000     0.685720000000     0.160920000000    -0.165778   
N69      N      0.672410000000     0.607650000000     0.231960000000    -0.2032     
N70      N      0.737380000000     0.636740000000     0.282140000000    -0.167864   
N71      N      0.980400000000     0.736150000000     0.356640000000    -0.205783   
N72      N      0.074270000000     0.782000000000     0.369470000000    -0.165469   
N73      N      0.793790000000     0.061010000000     0.873860000000    -0.206394   
N74      N      0.743090000000     0.965990000000     0.876500000000    -0.168574   
N75      N      0.939310000000     0.312220000000     0.815710000000    -0.207792   
N76      N      0.972630000000     0.379180000000     0.766990000000    -0.167408   
N77      N      0.126420000000     0.713620000000     0.682130000000    -0.207925   
N78      N      0.085670000000     0.635020000000     0.721180000000    -0.164167   
N79      N      0.571120000000     0.627190000000     0.946560000000    -0.206061   
N80      N      0.621130000000     0.722040000000     0.950410000000    -0.166287   
N81      N      0.293480000000     0.045450000000     0.586050000000    -0.203519   
N82      N      0.255370000000     0.964800000000     0.622640000000    -0.167608   
N83      N      0.403170000000     0.296970000000     0.528700000000    -0.20832    
N84      N      0.434300000000     0.367630000000     0.482800000000    -0.168801   
N85      N      0.675580000000     0.823490000000     0.758950000000    -0.204322   
N86      N      0.675190000000     0.798490000000     0.824630000000    -0.165672   
N87      N      0.686940000000     0.888140000000     0.503390000000    -0.209286   
N88      N      0.684090000000     0.860170000000     0.568520000000    -0.168082   
N89      N      0.738570000000     0.769910000000     0.651510000000    -0.204904   
N90      N      0.773860000000     0.739420000000     0.602140000000    -0.168929   
N91      N      0.578530000000     0.949260000000     0.714440000000    -0.20669    
N92      N      0.620310000000     0.914070000000     0.673950000000    -0.167261   
N93      N      0.025290000000     0.534610000000     0.835640000000    -0.205359   
N94      N      0.019610000000     0.560450000000     0.900220000000    -0.165085   
N95      N      0.027160000000     0.489940000000     0.582410000000    -0.202537   
N96      N      0.029260000000     0.474260000000     0.650360000000    -0.163276   
N97      N      0.917640000000     0.635960000000     0.535310000000    -0.205889   
N98      N      0.966860000000     0.590400000000     0.527960000000    -0.167531   
N99      N      0.347410000000     0.135680000000     0.968960000000    -0.204243   
N100     N      0.343000000000     0.172130000000     0.909030000000    -0.168422   
N101     N      0.345300000000     0.188990000000     0.717470000000    -0.208049   
N102     N      0.349210000000     0.210000000000     0.650690000000    -0.168734   
N103     N      0.444610000000     0.064250000000     0.780210000000    -0.202174   
N104     N      0.402790000000     0.108530000000     0.810210000000    -0.166095   
N105     N      0.121910000000     0.407890000000     0.941980000000    -0.206937   
N106     N      0.078080000000     0.457880000000     0.953870000000    -0.165987   
N107     N      0.244750000000     0.288110000000     0.864560000000    -0.204973   
N108     N      0.283710000000     0.253330000000     0.820800000000    -0.166602   
N109     N      0.481260000000     0.476710000000     0.870580000000    -0.209684   
N110     N      0.522030000000     0.515500000000     0.810640000000    -0.168449   
N111     N      0.560350000000     0.554440000000     0.621170000000    -0.204954   
N112     N      0.524520000000     0.518470000000     0.559450000000    -0.167413   
N113     N      0.871220000000     0.193130000000     0.000680000000    -0.206566   
N114     N      0.899300000000     0.222920000000     0.936410000000    -0.168268   
N115     N      0.815070000000     0.130210000000     0.686260000000    -0.209392   
N116     N      0.838400000000     0.154560000000     0.752200000000    -0.16629    
N117     N      0.170680000000     0.353660000000     0.747390000000    -0.205149   
N118     N      0.145070000000     0.355590000000     0.812570000000    -0.161067   
N119     N      0.215370000000     0.343020000000     0.493320000000    -0.204259   
N120     N      0.226530000000     0.345240000000     0.561930000000    -0.168102   
N121     N      0.064210000000     0.281780000000     0.638270000000    -0.205547   
N122     N      0.975410000000     0.233940000000     0.611990000000    -0.165823   
N123     N      0.325860000000     0.415300000000     0.671750000000    -0.206765   
N124     N      0.410780000000     0.461190000000     0.703380000000    -0.167178   
N125     N      0.555640000000     0.006400000000     0.838050000000    -0.20552    
N126     N      0.539890000000     0.006600000000     0.905810000000    -0.166023   
N127     N      0.469830000000     0.005710000000     0.659420000000    -0.205945   
N128     N      0.498550000000     0.005600000000     0.595080000000    -0.166264   
N129     N      0.716680000000     0.094400000000     0.570220000000    -0.207935   
N130     N      0.649210000000     0.062780000000     0.521600000000    -0.165637   
N131     N      0.227830000000     0.877370000000     0.808480000000    -0.200544   
N132     N      0.233890000000     0.884130000000     0.739550000000    -0.164289   
N133     N      0.167510000000     0.818200000000     0.494230000000    -0.205213   
N134     N      0.149490000000     0.797180000000     0.561220000000    -0.165641   
N135     N      0.325270000000     0.917030000000     0.930520000000    -0.205601   
N136     N      0.391000000000     0.949320000000     0.980220000000    -0.167478   
N137     N      0.823160000000     0.688800000000     0.909680000000    -0.203074   
N138     N      0.808530000000     0.690750000000     0.977920000000    -0.1679     
N139     N      0.899460000000     0.685960000000     0.728110000000    -0.206966   
N140     N      0.878230000000     0.685720000000     0.660920000000    -0.165777   
N141     N      0.672410000000     0.607650000000     0.731960000000    -0.203176   
N142     N      0.737380000000     0.636740000000     0.782140000000    -0.167949   
N143     N      0.980400000000     0.736150000000     0.856640000000    -0.205763   
N144     N      0.074270000000     0.782000000000     0.869480000000    -0.16556    
O1       O      0.873660000000     0.651640000000     0.278530000000    -0.506865   
O2       O      0.832010000000     0.651220000000     0.365730000000    -0.554661   
O3       O      0.793660000000     0.627850000000     0.305540000000    -0.552694   
O4       O      0.913200000000     0.675350000000     0.338830000000    -0.51325    
O5       O      0.925200000000     0.745210000000     0.331410000000    -0.557797   
O6       O      0.805340000000     0.697700000000     0.298500000000    -0.548497   
O7       O      0.845640000000     0.721710000000     0.358500000000    -0.51303    
O8       O      0.886790000000     0.721950000000     0.271250000000    -0.556474   
O9       O      0.220040000000     0.834000000000     0.353940000000    -0.554911   
O10      O      0.185590000000     0.802490000000     0.443340000000    -0.559182   
O11      O      0.140450000000     0.784180000000     0.385090000000    -0.547016   
O12      O      0.263790000000     0.851740000000     0.411900000000    -0.561741   
O13      O      0.257360000000     0.913220000000     0.417630000000    -0.508077   
O14      O      0.134160000000     0.845790000000     0.391160000000    -0.546162   
O15      O      0.177720000000     0.863250000000     0.449250000000    -0.51813    
O16      O      0.211880000000     0.894570000000     0.359730000000    -0.510551   
O17      O      0.504850000000     0.970900000000     0.048500000000    -0.550273   
O18      O      0.527370000000     0.972450000000     0.456510000000    -0.549281   
O19      O      0.580120000000     0.999220000000     0.011310000000    -0.546663   
O20      O      0.453880000000     0.944700000000     0.493800000000    -0.55721    
O21      O      0.460360000000     0.012870000000     0.489570000000    -0.547896   
O22      O      0.586350000000     0.067330000000     0.007780000000    -0.554184   
O23      O      0.535830000000     0.041540000000     0.452850000000    -0.552232   
O24      O      0.512390000000     0.039570000000     0.044410000000    -0.549693   
O25      O      0.181310000000     0.317550000000     0.203560000000    -0.554922   
O26      O      0.206700000000     0.312420000000     0.112960000000    -0.551745   
O27      O      0.258120000000     0.347860000000     0.167270000000    -0.552176   
O28      O      0.131240000000     0.283250000000     0.149240000000    -0.556753   
O29      O      0.132740000000     0.348540000000     0.141120000000    -0.512062   
O30      O      0.259040000000     0.412770000000     0.158730000000    -0.510363   
O31      O      0.209760000000     0.378570000000     0.104560000000    -0.547757   
O32      O      0.184550000000     0.383740000000     0.195220000000    -0.504374   
O33      O      0.862770000000     0.147860000000     0.044980000000    -0.55945    
O34      O      0.835110000000     0.116930000000     0.135250000000    -0.517173   
O35      O      0.785460000000     0.098110000000     0.079450000000    -0.553338   
O36      O      0.911290000000     0.166280000000     0.100490000000    -0.544839   
O37      O      0.905090000000     0.227810000000     0.107440000000    -0.550651   
O38      O      0.779690000000     0.159640000000     0.087180000000    -0.511085   
O39      O      0.827790000000     0.177770000000     0.142640000000    -0.559612   
O40      O      0.854780000000     0.208310000000     0.052330000000    -0.510664   
O41      O      0.554880000000     0.514040000000     0.167870000000    -0.519235   
O42      O      0.536760000000     0.495470000000     0.260200000000    -0.558595   
O43      O      0.481520000000     0.468190000000     0.207380000000    -0.555014   
O44      O      0.608440000000     0.540190000000     0.220890000000    -0.556333   
O45      O      0.602230000000     0.601970000000     0.225120000000    -0.499854   
O46      O      0.475050000000     0.529950000000     0.210920000000    -0.554775   
O47      O      0.528450000000     0.556200000000     0.264010000000    -0.54932    
O48      O      0.547130000000     0.575090000000     0.171800000000    -0.545584   
O49      O      0.194690000000     0.386280000000     0.355900000000    -0.547074   
O50      O      0.231760000000     0.377260000000     0.442600000000    -0.55235    
O51      O      0.244570000000     0.352310000000     0.381820000000    -0.555449   
O52      O      0.183340000000     0.410380000000     0.416580000000    -0.51523    
O53      O      0.120290000000     0.343630000000     0.422560000000    -0.553196   
O54      O      0.181770000000     0.285390000000     0.387870000000    -0.505421   
O55      O      0.169530000000     0.309570000000     0.448510000000    -0.523379   
O56      O      0.132640000000     0.318460000000     0.361810000000    -0.541653   
O57      O      0.377120000000     0.208250000000     0.360980000000    -0.558201   
O58      O      0.378250000000     0.216220000000     0.267760000000    -0.5622     
O59      O      0.348540000000     0.248080000000     0.317230000000    -0.551296   
O60      O      0.405870000000     0.177100000000     0.311920000000    -0.556792   
O61      O      0.338110000000     0.114230000000     0.310060000000    -0.544882   
O62      O      0.280810000000     0.185220000000     0.314890000000    -0.545874   
O63      O      0.309830000000     0.154080000000     0.265650000000    -0.521525   
O64      O      0.308610000000     0.146250000000     0.358950000000    -0.552071   
O65      O      0.054980000000     0.573200000000     0.450380000000    -0.551237   
O66      O      0.060750000000     0.536450000000     0.037810000000    -0.554763   
O67      O      0.084180000000     0.521700000000     0.477620000000    -0.550545   
O68      O      0.030370000000     0.588370000000     0.010550000000    -0.547172   
O69      O      0.961940000000     0.527160000000     0.004630000000    -0.554641   
O70      O      0.015470000000     0.460980000000     0.471460000000    -0.550862   
O71      O      0.991680000000     0.476230000000     0.031880000000    -0.5097     
O72      O      0.985640000000     0.513220000000     0.444390000000    -0.552864   
O73      O      0.716110000000     0.881470000000     0.119810000000    -0.555157   
O74      O      0.711670000000     0.863680000000     0.212480000000    -0.557713   
O75      O      0.741570000000     0.837460000000     0.160960000000    -0.564762   
O76      O      0.685050000000     0.908520000000     0.171320000000    -0.549257   
O77      O      0.617240000000     0.846210000000     0.166440000000    -0.550137   
O78      O      0.673790000000     0.775340000000     0.155870000000    -0.507056   
O79      O      0.643170000000     0.802270000000     0.207580000000    -0.503307   
O80      O      0.647280000000     0.820340000000     0.114910000000    -0.550459   
O81      O      0.892470000000     0.720610000000     0.110280000000    -0.544919   
O82      O      0.856750000000     0.724320000000     0.021800000000    -0.545234   
O83      O      0.839670000000     0.746970000000     0.081150000000    -0.560672   
O84      O      0.911010000000     0.697480000000     0.050650000000    -0.510989   
O85      O      0.851510000000     0.628110000000     0.056410000000    -0.561139   
O86      O      0.779800000000     0.677660000000     0.086630000000    -0.547291   
O87      O      0.798130000000     0.654210000000     0.027350000000    -0.552992   
O88      O      0.833520000000     0.650670000000     0.115760000000    -0.546417   
O89      O      0.520980000000     0.040950000000     0.201320000000    -0.52023    
O90      O      0.563230000000     0.040740000000     0.287960000000    -0.51473    
O91      O      0.575300000000     0.012950000000     0.228550000000    -0.555715   
O92      O      0.509690000000     0.068110000000     0.260580000000    -0.546585   
O93      O      0.449000000000     0.000190000000     0.268880000000    -0.510792   
O94      O      0.514770000000     0.945010000000     0.237230000000    -0.516756   
O95      O      0.503440000000     0.972190000000     0.296590000000    -0.552975   
O96      O      0.461420000000     0.972100000000     0.209750000000    -0.548227   
O97      O      0.312610000000     0.148430000000     0.012590000000    -0.523953   
O98      O      0.314090000000     0.185830000000     0.100720000000    -0.558592   
O99      O      0.340140000000     0.228890000000     0.042210000000    -0.556638   
O100     O      0.287530000000     0.106910000000     0.070700000000    -0.553075   
O101     O      0.356490000000     0.115410000000     0.076850000000    -0.511127   
O102     O      0.408980000000     0.237410000000     0.049140000000    -0.519218   
O103     O      0.383590000000     0.195560000000     0.107460000000    -0.54976    
O104     O      0.382510000000     0.159030000000     0.018960000000    -0.550281   
O105     O      0.482220000000     0.511030000000     0.013360000000    -0.549808   
O106     O      0.460190000000     0.488920000000     0.421550000000    -0.512055   
O107     O      0.437090000000     0.435980000000     0.975840000000    -0.551789   
O108     O      0.504420000000     0.562310000000     0.459010000000    -0.503492   
O109     O      0.567800000000     0.558710000000     0.454360000000    -0.55871    
O110     O      0.500590000000     0.432470000000     0.970790000000    -0.558328   
O111     O      0.522900000000     0.483840000000     0.416810000000    -0.563648   
O112     O      0.544740000000     0.505600000000     0.008490000000    -0.554842   
O113     O      0.180230000000     0.862840000000     0.198770000000    -0.550211   
O114     O      0.139830000000     0.821790000000     0.111500000000    -0.548613   
O115     O      0.128080000000     0.780480000000     0.170330000000    -0.555843   
O116     O      0.190740000000     0.901980000000     0.140260000000    -0.557246   
O117     O      0.252970000000     0.897070000000     0.131820000000    -0.552436   
O118     O      0.190180000000     0.775510000000     0.161800000000    -0.516066   
O119     O      0.201090000000     0.815050000000     0.103060000000    -0.552244   
O120     O      0.241340000000     0.855850000000     0.190290000000    -0.545366   
O121     O      0.993060000000     0.516600000000     0.284270000000    -0.555807   
O122     O      0.994750000000     0.486870000000     0.194310000000    -0.55199    
O123     O      0.967520000000     0.440700000000     0.250700000000    -0.55767    
O124     O      0.021730000000     0.565030000000     0.228000000000    -0.544617   
O125     O      0.090190000000     0.572510000000     0.235230000000    -0.546449   
O126     O      0.036140000000     0.448200000000     0.257020000000    -0.54768    
O127     O      0.064410000000     0.496810000000     0.200710000000    -0.543033   
O128     O      0.062130000000     0.525350000000     0.291300000000    -0.515891   
O129     O      0.822180000000     0.174230000000     0.302340000000    -0.548469   
O130     O      0.853100000000     0.209760000000     0.391650000000    -0.55114    
O131     O      0.872710000000     0.252030000000     0.333540000000    -0.568858   
O132     O      0.801140000000     0.130080000000     0.360700000000    -0.512678   
O133     O      0.861350000000     0.120910000000     0.356170000000    -0.560221   
O134     O      0.933290000000     0.243490000000     0.328900000000    -0.509753   
O135     O      0.912680000000     0.199330000000     0.387070000000    -0.55321    
O136     O      0.881820000000     0.163870000000     0.297920000000    -0.549655   
O137     O      0.651580000000     0.864680000000     0.453280000000    -0.517115   
O138     O      0.644040000000     0.817630000000     0.367350000000    -0.551588   
O139     O      0.618930000000     0.782480000000     0.427890000000    -0.544706   
O140     O      0.677850000000     0.901630000000     0.392690000000    -0.549093   
O141     O      0.744970000000     0.906010000000     0.400050000000    -0.557774   
O142     O      0.686070000000     0.786610000000     0.434400000000    -0.549913   
O143     O      0.712280000000     0.824140000000     0.373940000000    -0.549578   
O144     O      0.719130000000     0.870010000000     0.460530000000    -0.557534   
O145     O      0.873660000000     0.651640000000     0.778530000000    -0.506944   
O146     O      0.832010000000     0.651220000000     0.865730000000    -0.554587   
O147     O      0.793660000000     0.627850000000     0.805540000000    -0.552599   
O148     O      0.913200000000     0.675350000000     0.838830000000    -0.513251   
O149     O      0.925200000000     0.745210000000     0.831410000000    -0.557844   
O150     O      0.805350000000     0.697700000000     0.798500000000    -0.548626   
O151     O      0.845640000000     0.721710000000     0.858500000000    -0.513194   
O152     O      0.886790000000     0.721950000000     0.771250000000    -0.556566   
O153     O      0.220040000000     0.834000000000     0.853940000000    -0.554919   
O154     O      0.185590000000     0.802490000000     0.943340000000    -0.559227   
O155     O      0.140450000000     0.784180000000     0.885090000000    -0.547097   
O156     O      0.263790000000     0.851740000000     0.911900000000    -0.561752   
O157     O      0.257360000000     0.913220000000     0.917630000000    -0.50809    
O158     O      0.134160000000     0.845780000000     0.891160000000    -0.546342   
O159     O      0.177720000000     0.863250000000     0.949250000000    -0.518181   
O160     O      0.211880000000     0.894570000000     0.859730000000    -0.51056    
O161     O      0.504850000000     0.970900000000     0.548500000000    -0.550121   
O162     O      0.527370000000     0.972450000000     0.956510000000    -0.549342   
O163     O      0.580120000000     0.999220000000     0.511310000000    -0.546638   
O164     O      0.453880000000     0.944700000000     0.993800000000    -0.557309   
O165     O      0.460360000000     0.012870000000     0.989570000000    -0.547881   
O166     O      0.586350000000     0.067330000000     0.507780000000    -0.554275   
O167     O      0.535830000000     0.041540000000     0.952850000000    -0.55225    
O168     O      0.512390000000     0.039570000000     0.544410000000    -0.54971    
O169     O      0.181310000000     0.317550000000     0.703560000000    -0.554821   
O170     O      0.206700000000     0.312420000000     0.612960000000    -0.551819   
O171     O      0.258120000000     0.347860000000     0.667270000000    -0.552178   
O172     O      0.131240000000     0.283250000000     0.649240000000    -0.556754   
O173     O      0.132740000000     0.348540000000     0.641120000000    -0.512071   
O174     O      0.259040000000     0.412770000000     0.658730000000    -0.510381   
O175     O      0.209760000000     0.378560000000     0.604560000000    -0.547921   
O176     O      0.184550000000     0.383740000000     0.695220000000    -0.504466   
O177     O      0.862770000000     0.147860000000     0.544980000000    -0.559476   
O178     O      0.835110000000     0.116930000000     0.635250000000    -0.517177   
O179     O      0.785460000000     0.098110000000     0.579460000000    -0.553405   
O180     O      0.911290000000     0.166280000000     0.600490000000    -0.544864   
O181     O      0.905090000000     0.227810000000     0.607440000000    -0.550728   
O182     O      0.779690000000     0.159640000000     0.587170000000    -0.511091   
O183     O      0.827790000000     0.177770000000     0.642630000000    -0.559935   
O184     O      0.854780000000     0.208310000000     0.552330000000    -0.510555   
O185     O      0.554880000000     0.514040000000     0.667870000000    -0.519261   
O186     O      0.536760000000     0.495470000000     0.760200000000    -0.558602   
O187     O      0.481520000000     0.468190000000     0.707380000000    -0.554995   
O188     O      0.608440000000     0.540190000000     0.720900000000    -0.556345   
O189     O      0.602230000000     0.601970000000     0.725120000000    -0.499818   
O190     O      0.475050000000     0.529950000000     0.710920000000    -0.554717   
O191     O      0.528450000000     0.556200000000     0.764020000000    -0.549172   
O192     O      0.547130000000     0.575090000000     0.671800000000    -0.545537   
O193     O      0.194690000000     0.386280000000     0.855900000000    -0.547073   
O194     O      0.231760000000     0.377260000000     0.942600000000    -0.552361   
O195     O      0.244570000000     0.352310000000     0.881820000000    -0.55545    
O196     O      0.183340000000     0.410380000000     0.916580000000    -0.515232   
O197     O      0.120290000000     0.343630000000     0.922560000000    -0.553199   
O198     O      0.181770000000     0.285390000000     0.887870000000    -0.505422   
O199     O      0.169530000000     0.309570000000     0.948510000000    -0.523396   
O200     O      0.132640000000     0.318460000000     0.861810000000    -0.541652   
O201     O      0.377130000000     0.208250000000     0.860980000000    -0.558082   
O202     O      0.378250000000     0.216220000000     0.767760000000    -0.562211   
O203     O      0.348540000000     0.248080000000     0.817230000000    -0.551429   
O204     O      0.405870000000     0.177100000000     0.811920000000    -0.556668   
O205     O      0.338110000000     0.114230000000     0.810060000000    -0.544877   
O206     O      0.280810000000     0.185220000000     0.814880000000    -0.545895   
O207     O      0.309830000000     0.154080000000     0.765650000000    -0.521521   
O208     O      0.308610000000     0.146250000000     0.858950000000    -0.552034   
O209     O      0.054980000000     0.573200000000     0.950370000000    -0.551169   
O210     O      0.060750000000     0.536450000000     0.537820000000    -0.554788   
O211     O      0.084180000000     0.521700000000     0.977620000000    -0.550499   
O212     O      0.030370000000     0.588370000000     0.510550000000    -0.547247   
O213     O      0.961940000000     0.527160000000     0.504630000000    -0.554685   
O214     O      0.015470000000     0.460980000000     0.971460000000    -0.550858   
O215     O      0.991680000000     0.476230000000     0.531890000000    -0.509689   
O216     O      0.985640000000     0.513220000000     0.944390000000    -0.55293    
O217     O      0.716110000000     0.881470000000     0.619810000000    -0.555156   
O218     O      0.711670000000     0.863680000000     0.712480000000    -0.557718   
O219     O      0.741570000000     0.837460000000     0.660960000000    -0.564854   
O220     O      0.685050000000     0.908520000000     0.671320000000    -0.54914    
O221     O      0.617240000000     0.846210000000     0.666440000000    -0.550112   
O222     O      0.673790000000     0.775340000000     0.655870000000    -0.507043   
O223     O      0.643170000000     0.802270000000     0.707580000000    -0.503276   
O224     O      0.647280000000     0.820350000000     0.614910000000    -0.550497   
O225     O      0.892470000000     0.720610000000     0.610280000000    -0.544835   
O226     O      0.856750000000     0.724320000000     0.521790000000    -0.545059   
O227     O      0.839670000000     0.746970000000     0.581160000000    -0.560711   
O228     O      0.911010000000     0.697480000000     0.550650000000    -0.510886   
O229     O      0.851500000000     0.628110000000     0.556410000000    -0.561178   
O230     O      0.779800000000     0.677660000000     0.586630000000    -0.547382   
O231     O      0.798130000000     0.654210000000     0.527350000000    -0.553118   
O232     O      0.833520000000     0.650670000000     0.615760000000    -0.546448   
O233     O      0.520980000000     0.040950000000     0.701320000000    -0.520207   
O234     O      0.563230000000     0.040740000000     0.787960000000    -0.514659   
O235     O      0.575300000000     0.012950000000     0.728550000000    -0.555586   
O236     O      0.509690000000     0.068110000000     0.760580000000    -0.546684   
O237     O      0.449000000000     0.000190000000     0.768890000000    -0.510727   
O238     O      0.514770000000     0.945010000000     0.737230000000    -0.516748   
O239     O      0.503440000000     0.972190000000     0.796590000000    -0.552935   
O240     O      0.461420000000     0.972100000000     0.709750000000    -0.548235   
O241     O      0.312610000000     0.148430000000     0.512590000000    -0.5239     
O242     O      0.314090000000     0.185830000000     0.600720000000    -0.558541   
O243     O      0.340140000000     0.228890000000     0.542210000000    -0.55658    
O244     O      0.287530000000     0.106900000000     0.570700000000    -0.553021   
O245     O      0.356490000000     0.115410000000     0.576850000000    -0.511126   
O246     O      0.408980000000     0.237410000000     0.549140000000    -0.519192   
O247     O      0.383590000000     0.195560000000     0.607460000000    -0.549742   
O248     O      0.382510000000     0.159030000000     0.518960000000    -0.550226   
O249     O      0.482220000000     0.511030000000     0.513360000000    -0.549942   
O250     O      0.460190000000     0.488920000000     0.921550000000    -0.512032   
O251     O      0.437090000000     0.435980000000     0.475840000000    -0.55179    
O252     O      0.504420000000     0.562310000000     0.959010000000    -0.503488   
O253     O      0.567800000000     0.558710000000     0.954360000000    -0.5587     
O254     O      0.500590000000     0.432470000000     0.470790000000    -0.558338   
O255     O      0.522900000000     0.483840000000     0.916810000000    -0.563616   
O256     O      0.544730000000     0.505600000000     0.508490000000    -0.555092   
O257     O      0.180230000000     0.862840000000     0.698770000000    -0.550209   
O258     O      0.139830000000     0.821790000000     0.611500000000    -0.548615   
O259     O      0.128080000000     0.780480000000     0.670330000000    -0.555842   
O260     O      0.190740000000     0.901980000000     0.640260000000    -0.557247   
O261     O      0.252970000000     0.897070000000     0.631820000000    -0.552441   
O262     O      0.190180000000     0.775510000000     0.661800000000    -0.516067   
O263     O      0.201090000000     0.815050000000     0.603060000000    -0.552248   
O264     O      0.241340000000     0.855850000000     0.690290000000    -0.545366   
O265     O      0.993060000000     0.516600000000     0.784270000000    -0.555757   
O266     O      0.994750000000     0.486870000000     0.694310000000    -0.55201    
O267     O      0.967520000000     0.440700000000     0.750700000000    -0.557743   
O268     O      0.021730000000     0.565030000000     0.728000000000    -0.54448    
O269     O      0.090190000000     0.572510000000     0.735230000000    -0.546421   
O270     O      0.036140000000     0.448200000000     0.757020000000    -0.547674   
O271     O      0.064410000000     0.496810000000     0.700710000000    -0.543022   
O272     O      0.062130000000     0.525350000000     0.791300000000    -0.515878   
O273     O      0.822180000000     0.174230000000     0.802340000000    -0.54842    
O274     O      0.853110000000     0.209760000000     0.891650000000    -0.551291   
O275     O      0.872710000000     0.252030000000     0.833540000000    -0.568832   
O276     O      0.801140000000     0.130080000000     0.860700000000    -0.512643   
O277     O      0.861350000000     0.120910000000     0.856170000000    -0.560248   
O278     O      0.933290000000     0.243490000000     0.828900000000    -0.50969    
O279     O      0.912680000000     0.199330000000     0.887070000000    -0.553407   
O280     O      0.881820000000     0.163870000000     0.797920000000    -0.5495     
O281     O      0.651580000000     0.864680000000     0.953270000000    -0.517243   
O282     O      0.644040000000     0.817640000000     0.867350000000    -0.551609   
O283     O      0.618930000000     0.782480000000     0.927890000000    -0.544768   
O284     O      0.677850000000     0.901630000000     0.892690000000    -0.549122   
O285     O      0.744970000000     0.906010000000     0.900050000000    -0.557762   
O286     O      0.686070000000     0.786610000000     0.934400000000    -0.549912   
O287     O      0.712280000000     0.824140000000     0.873940000000    -0.549537   
O288     O      0.719130000000     0.870010000000     0.960530000000    -0.5575     
V1       V      0.852690000000     0.648750000000     0.322470000000     1.41892    
V2       V      0.866120000000     0.724370000000     0.314520000000     1.40702    
V3       V      0.202640000000     0.815590000000     0.398340000000     1.40196    
V4       V      0.195150000000     0.881710000000     0.404780000000     1.45461    
V5       V      0.516440000000     0.969130000000     0.002720000000     1.4075     
V6       V      0.523910000000     0.042990000000     0.498460000000     1.42071    
V7       V      0.194350000000     0.312670000000     0.158620000000     1.38955    
V8       V      0.196330000000     0.383340000000     0.149460000000     1.45306    
V9       V      0.848830000000     0.129760000000     0.089780000000     1.39276    
V10      V      0.841760000000     0.195880000000     0.097830000000     1.45313    
V11      V      0.545570000000     0.501980000000     0.213850000000     1.41151    
V12      V      0.538090000000     0.568360000000     0.218110000000     1.43751    
V13      V      0.216180000000     0.384120000000     0.398860000000     1.43488    
V14      V      0.148520000000     0.311600000000     0.405430000000     1.41953    
V15      V      0.380090000000     0.215010000000     0.314500000000     1.39705    
V16      V      0.306670000000     0.147390000000     0.312230000000     1.43898    
V17      V      0.060280000000     0.557400000000     0.494390000000     1.39497    
V18      V      0.986010000000     0.491940000000     0.987810000000     1.42357    
V19      V      0.716250000000     0.875350000000     0.166390000000     1.4033     
V20      V      0.642720000000     0.808500000000     0.161000000000     1.43818    
V21      V      0.877440000000     0.725030000000     0.065670000000     1.41109    
V22      V      0.813370000000     0.649910000000     0.071800000000     1.40486    
V23      V      0.544760000000     0.043360000000     0.244230000000     1.42799    
V24      V      0.479710000000     0.969720000000     0.253590000000     1.42876    
V25      V      0.310870000000     0.167290000000     0.056300000000     1.42189    
V26      V      0.385610000000     0.177130000000     0.063520000000     1.44277    
V27      V      0.468370000000     0.499590000000     0.967680000000     1.43034    
V28      V      0.536590000000     0.495140000000     0.462400000000     1.4046     
V29      V      0.157130000000     0.841780000000     0.155630000000     1.40131    
V30      V      0.223870000000     0.835700000000     0.146290000000     1.42238    
V31      V      0.991620000000     0.502160000000     0.238940000000     1.40833    
V32      V      0.065930000000     0.510950000000     0.246350000000     1.42634    
V33      V      0.834790000000     0.191710000000     0.347300000000     1.43194    
V34      V      0.899720000000     0.181560000000     0.342290000000     1.40716    
V35      V      0.645490000000     0.841550000000     0.409950000000     1.42254    
V36      V      0.718260000000     0.846800000000     0.417590000000     1.40225    
V37      V      0.852690000000     0.648750000000     0.822470000000     1.41884    
V38      V      0.866120000000     0.724370000000     0.814520000000     1.40731    
V39      V      0.202640000000     0.815590000000     0.898340000000     1.402      
V40      V      0.195150000000     0.881710000000     0.904780000000     1.45465    
V41      V      0.516440000000     0.969130000000     0.502720000000     1.40716    
V42      V      0.523910000000     0.042990000000     0.998460000000     1.42038    
V43      V      0.194350000000     0.312670000000     0.658620000000     1.38955    
V44      V      0.196330000000     0.383340000000     0.649460000000     1.45311    
V45      V      0.848830000000     0.129760000000     0.589780000000     1.39283    
V46      V      0.841760000000     0.195880000000     0.597840000000     1.45338    
V47      V      0.545570000000     0.501980000000     0.713850000000     1.41153    
V48      V      0.538090000000     0.568360000000     0.718110000000     1.43722    
V49      V      0.216180000000     0.384120000000     0.898860000000     1.43488    
V50      V      0.148520000000     0.311600000000     0.905430000000     1.41952    
V51      V      0.380090000000     0.215020000000     0.814500000000     1.39703    
V52      V      0.306670000000     0.147390000000     0.812230000000     1.43906    
V53      V      0.060280000000     0.557400000000     0.994390000000     1.39474    
V54      V      0.986010000000     0.491940000000     0.487810000000     1.42346    
V55      V      0.716250000000     0.875340000000     0.666390000000     1.4033     
V56      V      0.642720000000     0.808500000000     0.661000000000     1.43807    
V57      V      0.877440000000     0.725030000000     0.565670000000     1.41062    
V58      V      0.813370000000     0.649910000000     0.571800000000     1.40514    
V59      V      0.544750000000     0.043360000000     0.744230000000     1.42795    
V60      V      0.479710000000     0.969720000000     0.753590000000     1.42859    
V61      V      0.310870000000     0.167290000000     0.556300000000     1.42148    
V62      V      0.385600000000     0.177130000000     0.563520000000     1.44269    
V63      V      0.468370000000     0.499590000000     0.467680000000     1.43045    
V64      V      0.536590000000     0.495140000000     0.962400000000     1.40443    
V65      V      0.157130000000     0.841780000000     0.655630000000     1.40131    
V66      V      0.223870000000     0.835700000000     0.646290000000     1.42237    
V67      V      0.991620000000     0.502150000000     0.738940000000     1.40829    
V68      V      0.065930000000     0.510950000000     0.746350000000     1.42627    
V69      V      0.834800000000     0.191710000000     0.847300000000     1.43184    
V70      V      0.899720000000     0.181560000000     0.842300000000     1.40702    
V71      V      0.645490000000     0.841550000000     0.909950000000     1.42288    
V72      V      0.718260000000     0.846800000000     0.917590000000     1.40214    


