data_structure

_audit_creation_method RASPA-1.0
_audit_creation_date 2023-5-22
_audit_author_name 'Poobodin Mano'

_cell_length_a    31.1477
_cell_length_b    31.1655
_cell_length_c    42.043
_cell_angle_alpha 89.9998
_cell_angle_beta  90
_cell_angle_gamma 90
_cell_volume      40812.6

_symmetry_cell_setting          triclinic
_symmetry_space_group_name_Hall 'P 1'
_symmetry_space_group_name_H-M  'P 1'
_symmetry_Int_Tables_number     1

_symmetry_equiv_pos_as_xyz 'x,y,z'

loop_
_atom_site_label
_atom_site_type_symbol
_atom_site_fract_x
_atom_site_fract_y
_atom_site_fract_z
_atom_site_charge
C1       C      0.261150000000     0.011000000000     0.502580000000     0.472323   
C2       C      0.423030000000     0.011320000000     0.490260000000     0.474536   
C3       C      0.336410000000     0.013900000000     0.436720000000     0.474317   
C4       C      0.351600000000     0.008750000000     0.056450000000     0.476783   
C5       C      0.259170000000     0.013110000000     0.244340000000     0.475999   
C6       C      0.421720000000     0.012660000000     0.247080000000     0.472524   
C7       C      0.341280000000     0.010560000000     0.185640000000     0.475416   
C8       C      0.335480000000     0.015080000000     0.305830000000     0.474656   
C9       C      0.016510000000     0.759890000000     0.517150000000     0.476352   
C10      C      0.016240000000     0.597720000000     0.513220000000     0.47491    
C11      C      0.015990000000     0.680810000000     0.454580000000     0.470067   
C12      C      0.016370000000     0.677370000000     0.075410000000     0.470449   
C13      C      0.013200000000     0.760840000000     0.255200000000     0.4712     
C14      C      0.017110000000     0.600220000000     0.274820000000     0.471422   
C15      C      0.015130000000     0.666900000000     0.205420000000     0.471279   
C16      C      0.015760000000     0.694020000000     0.324580000000     0.470216   
C17      C      0.759270000000     0.010530000000     0.502780000000     0.472582   
C18      C      0.596550000000     0.010490000000     0.503130000000     0.474274   
C19      C      0.676740000000     0.012960000000     0.442670000000     0.476416   
C20      C      0.675080000000     0.007610000000     0.062840000000     0.475096   
C21      C      0.758920000000     0.007970000000     0.248460000000     0.476392   
C22      C      0.597080000000     0.010800000000     0.259260000000     0.47279    
C23      C      0.673810000000     0.007210000000     0.193840000000     0.475123   
C24      C      0.686630000000     0.011920000000     0.313640000000     0.476448   
C25      C      0.090130000000     0.002350000000     0.016510000000     0.469877   
C26      C      0.931410000000     0.021980000000     0.995000000000     0.476645   
C27      C      0.019600000000     0.092840000000     0.506860000000     0.475153   
C28      C      0.001830000000     0.931740000000     0.504690000000     0.475106   
C29      C      0.090040000000     0.998900000000     0.230780000000     0.47644    
C30      C      0.931160000000     0.019040000000     0.248670000000     0.475829   
C31      C      0.020640000000     0.089120000000     0.246550000000     0.470452   
C32      C      0.999400000000     0.929210000000     0.232850000000     0.473143   
C33      C      0.009970000000     0.266570000000     0.503610000000     0.475338   
C34      C      0.015040000000     0.425850000000     0.526430000000     0.475377   
C35      C      0.010710000000     0.360970000000     0.455590000000     0.470117   
C36      C      0.015000000000     0.331190000000     0.074510000000     0.468819   
C37      C      0.013100000000     0.262790000000     0.266600000000     0.470863   
C38      C      0.016510000000     0.425560000000     0.264280000000     0.470442   
C39      C      0.016820000000     0.342800000000     0.204940000000     0.467784   
C40      C      0.012670000000     0.345540000000     0.325910000000     0.468734   
C41      C      0.969550000000     0.371260000000     0.405290000000    -0.00875781 
C42      C      0.049620000000     0.375510000000     0.405170000000    -0.00851156 
C43      C      0.970880000000     0.341330000000     0.376240000000    -0.00929128 
C44      C      0.051730000000     0.344190000000     0.377250000000    -0.00861568 
C45      C      0.976180000000     0.319160000000     0.125300000000    -0.00815438 
C46      C      0.056310000000     0.316310000000     0.124170000000    -0.00910498 
C47      C      0.977510000000     0.349210000000     0.153960000000    -0.00873152 
C48      C      0.058270000000     0.344320000000     0.154320000000    -0.00972651 
C49      C      0.040640000000     0.193580000000     0.287120000000    -0.00849295 
C50      C      0.977730000000     0.196250000000     0.249550000000    -0.00737649 
C51      C      0.056240000000     0.152050000000     0.270890000000    -0.00867178 
C52      C      0.998030000000     0.160930000000     0.229550000000    -0.00671715 
C53      C      0.974150000000     0.197650000000     0.512720000000    -0.00730724 
C54      C      0.037420000000     0.202280000000     0.475590000000    -0.00761086 
C55      C      0.995380000000     0.160560000000     0.030150000000    -0.00471053 
C56      C      0.054630000000     0.159720000000     0.988960000000    -0.00250377 
C57      C      0.828400000000     0.976380000000     0.263130000000    -0.00643782 
C58      C      0.823430000000     0.033910000000     0.220860000000    -0.00708354 
C59      C      0.865920000000     0.000390000000     0.278420000000    -0.00796361 
C60      C      0.863570000000     0.055250000000     0.234390000000    -0.00587565 
C61      C      0.697790000000     0.972840000000     0.364120000000    -0.00724044 
C62      C      0.700560000000     0.053190000000     0.363160000000    -0.00827318 
C63      C      0.666770000000     0.974220000000     0.391990000000    -0.00747657 
C64      C      0.671550000000     0.054870000000     0.392590000000    -0.00850644 
C65      C      0.682210000000     0.046990000000     0.143680000000    -0.00740417 
C66      C      0.685420000000     0.966180000000     0.144220000000    -0.00837419 
C67      C      0.657390000000     0.045500000000     0.112620000000    -0.00784136 
C68      C      0.662740000000     0.965250000000     0.111900000000    -0.00811592 
C69      C      0.864600000000     0.060760000000     0.007070000000    -0.0105545  
C70      C      0.865060000000     0.000610000000     0.467210000000    -0.00896226 
C71      C      0.826430000000     0.040450000000     0.024140000000    -0.00652618 
C72      C      0.828050000000     0.978650000000     0.485210000000    -0.00721175 
C73      C      0.057860000000     0.493630000000     0.260560000000    -0.0091503  
C74      C      0.977040000000     0.494470000000     0.260930000000    -0.00835401 
C75      C      0.058130000000     0.532510000000     0.283000000000    -0.00876328 
C76      C      0.977860000000     0.532070000000     0.284210000000    -0.00807608 
C77      C      0.959970000000     0.864240000000     0.248260000000    -0.00467115 
C78      C      0.021940000000     0.860090000000     0.210080000000    -0.00875598 
C79      C      0.980700000000     0.830140000000     0.269250000000    -0.00760436 
C80      C      0.044040000000     0.826860000000     0.231710000000    -0.00758781 
C81      C      0.975670000000     0.529410000000     0.010780000000    -0.0115534  
C82      C      0.056550000000     0.529120000000     0.510120000000    -0.00842415 
C83      C      0.976300000000     0.494150000000     0.035980000000    -0.00662985 
C84      C      0.056530000000     0.493010000000     0.534800000000    -0.00823447 
C85      C      0.056170000000     0.676680000000     0.403720000000    -0.00904009 
C86      C      0.975250000000     0.677650000000     0.403920000000    -0.00886364 
C87      C      0.056130000000     0.706530000000     0.374770000000    -0.00867017 
C88      C      0.975910000000     0.707300000000     0.374880000000    -0.00826451 
C89      C      0.055250000000     0.652150000000     0.155490000000    -0.00857704 
C90      C      0.975020000000     0.653940000000     0.155210000000    -0.00840201 
C91      C      0.056570000000     0.681380000000     0.126240000000    -0.00878919 
C92      C      0.975660000000     0.683050000000     0.125900000000    -0.00857465 
C93      C      0.987920000000     0.826560000000     0.040500000000    -0.00718803 
C94      C      0.048500000000     0.828280000000     0.000630000000    -0.0133134  
C95      C      0.967360000000     0.865370000000     0.524180000000    -0.00713554 
C96      C      0.024860000000     0.862940000000     0.481930000000    -0.00753236 
C97      C      0.489950000000     0.971970000000     0.243560000000    -0.00844788 
C98      C      0.490490000000     0.052720000000     0.244370000000    -0.0087288  
C99      C      0.528380000000     0.971490000000     0.266190000000    -0.0082392  
C100     C      0.529370000000     0.051820000000     0.266690000000    -0.00853551 
C101     C      0.191510000000     0.982040000000     0.263810000000    -0.00640857 
C102     C      0.191130000000     0.045150000000     0.225990000000    -0.00725338 
C103     C      0.156760000000     0.960460000000     0.244010000000    -0.00565074 
C104     C      0.157390000000     0.022170000000     0.205550000000    -0.00894754 
C105     C      0.490950000000     0.971020000000     0.482570000000    -0.00788183 
C106     C      0.491220000000     0.051380000000     0.483130000000    -0.00822472 
C107     C      0.527990000000     0.970330000000     0.006400000000    -0.0109644  
C108     C      0.528300000000     0.051090000000     0.006940000000    -0.0109992  
C109     C      0.319930000000     0.055950000000     0.355160000000    -0.00829491 
C110     C      0.320010000000     0.975610000000     0.355410000000    -0.00737884 
C111     C      0.343380000000     0.056250000000     0.387210000000    -0.00870536 
C112     C      0.345690000000     0.975320000000     0.386120000000    -0.00773225 
C113     C      0.332760000000     0.969060000000     0.135690000000    -0.00845902 
C114     C      0.337450000000     0.049800000000     0.134680000000    -0.00775295 
C115     C      0.361710000000     0.967050000000     0.106270000000    -0.00796573 
C116     C      0.367970000000     0.047130000000     0.106510000000    -0.00761247 
C117     C      0.194020000000     0.044170000000     0.022440000000    -0.00762795 
C118     C      0.192290000000     0.979850000000     0.485760000000    -0.00774574 
C119     C      0.157740000000     0.024000000000     0.042370000000    -0.00913249 
C120     C      0.155460000000     0.961010000000     0.505120000000    -0.00478228 
C121     C      0.261150000000     0.011000000000     0.002580000000     0.469643   
C122     C      0.423030000000     0.011320000000     0.990260000000     0.475266   
C123     C      0.336410000000     0.013900000000     0.936720000000     0.474702   
C124     C      0.351600000000     0.008750000000     0.556450000000     0.476199   
C125     C      0.259170000000     0.013110000000     0.744340000000     0.475996   
C126     C      0.421720000000     0.012660000000     0.747080000000     0.472529   
C127     C      0.341280000000     0.010560000000     0.685640000000     0.475418   
C128     C      0.335480000000     0.015080000000     0.805830000000     0.474786   
C129     C      0.016510000000     0.759890000000     0.017150000000     0.475508   
C130     C      0.016240000000     0.597720000000     0.013220000000     0.474255   
C131     C      0.015990000000     0.680820000000     0.954580000000     0.469728   
C132     C      0.016370000000     0.677370000000     0.575410000000     0.470705   
C133     C      0.013200000000     0.760840000000     0.755200000000     0.471195   
C134     C      0.017110000000     0.600220000000     0.774820000000     0.47143    
C135     C      0.015130000000     0.666900000000     0.705420000000     0.471273   
C136     C      0.015760000000     0.694030000000     0.824580000000     0.470214   
C137     C      0.759270000000     0.010530000000     0.002780000000     0.472208   
C138     C      0.596550000000     0.010490000000     0.003130000000     0.473647   
C139     C      0.676740000000     0.012960000000     0.942670000000     0.475981   
C140     C      0.675080000000     0.007610000000     0.562840000000     0.47535    
C141     C      0.758920000000     0.007970000000     0.748460000000     0.476386   
C142     C      0.597080000000     0.010800000000     0.759260000000     0.472797   
C143     C      0.673810000000     0.007210000000     0.693830000000     0.475032   
C144     C      0.686630000000     0.011920000000     0.813640000000     0.476453   
C145     C      0.090130000000     0.002350000000     0.516510000000     0.473345   
C146     C      0.931410000000     0.021980000000     0.495000000000     0.473082   
C147     C      0.019600000000     0.092840000000     0.006860000000     0.472057   
C148     C      0.001830000000     0.931740000000     0.004690000000     0.47184    
C149     C      0.090040000000     0.998900000000     0.730780000000     0.476434   
C150     C      0.931160000000     0.019040000000     0.748670000000     0.475824   
C151     C      0.020640000000     0.089120000000     0.746550000000     0.470446   
C152     C      0.999400000000     0.929210000000     0.732850000000     0.473135   
C153     C      0.009970000000     0.266570000000     0.003610000000     0.472523   
C154     C      0.015040000000     0.425860000000     0.026430000000     0.474816   
C155     C      0.010710000000     0.360970000000     0.955590000000     0.469757   
C156     C      0.015010000000     0.331190000000     0.574510000000     0.469072   
C157     C      0.013100000000     0.262790000000     0.766600000000     0.470863   
C158     C      0.016510000000     0.425560000000     0.764280000000     0.470445   
C159     C      0.016820000000     0.342800000000     0.704940000000     0.467777   
C160     C      0.012670000000     0.345540000000     0.825910000000     0.468743   
C161     C      0.969550000000     0.371260000000     0.905290000000    -0.00878649 
C162     C      0.049620000000     0.375510000000     0.905170000000    -0.008535   
C163     C      0.970880000000     0.341330000000     0.876240000000    -0.00927797 
C164     C      0.051730000000     0.344190000000     0.877250000000    -0.00860601 
C165     C      0.976180000000     0.319160000000     0.625300000000    -0.00814751 
C166     C      0.056310000000     0.316310000000     0.624170000000    -0.00911047 
C167     C      0.977510000000     0.349210000000     0.653960000000    -0.00873392 
C168     C      0.058270000000     0.344320000000     0.654320000000    -0.00973343 
C169     C      0.040640000000     0.193580000000     0.787120000000    -0.00850494 
C170     C      0.977730000000     0.196250000000     0.749550000000    -0.00735987 
C171     C      0.056240000000     0.152050000000     0.770890000000    -0.00867364 
C172     C      0.998030000000     0.160930000000     0.729550000000    -0.00673039 
C173     C      0.974150000000     0.197650000000     0.012720000000    -0.0129236  
C174     C      0.037420000000     0.202280000000     0.975590000000    -0.00899372 
C175     C      0.995380000000     0.160560000000     0.530150000000    -0.00604645 
C176     C      0.054630000000     0.159720000000     0.488960000000    -0.00790996 
C177     C      0.828400000000     0.976370000000     0.763130000000    -0.00652256 
C178     C      0.823430000000     0.033910000000     0.720860000000    -0.00708961 
C179     C      0.865920000000     0.000390000000     0.778420000000    -0.00793967 
C180     C      0.863570000000     0.055250000000     0.734390000000    -0.00588157 
C181     C      0.697790000000     0.972840000000     0.864120000000    -0.00723195 
C182     C      0.700560000000     0.053190000000     0.863160000000    -0.00827063 
C183     C      0.666770000000     0.974220000000     0.891990000000    -0.00750534 
C184     C      0.671550000000     0.054870000000     0.892600000000    -0.00851448 
C185     C      0.682210000000     0.046990000000     0.643680000000    -0.00737686 
C186     C      0.685420000000     0.966180000000     0.644220000000    -0.0083487  
C187     C      0.657390000000     0.045500000000     0.612630000000    -0.00787422 
C188     C      0.662740000000     0.965250000000     0.611900000000    -0.00812787 
C189     C      0.864600000000     0.060760000000     0.507070000000    -0.0052318  
C190     C      0.865060000000     0.000610000000     0.967210000000    -0.0101367  
C191     C      0.826430000000     0.040450000000     0.524140000000    -0.00784147 
C192     C      0.828050000000     0.978650000000     0.985210000000    -0.00175334 
C193     C      0.057860000000     0.493630000000     0.760560000000    -0.00914848 
C194     C      0.977040000000     0.494470000000     0.760930000000    -0.00835678 
C195     C      0.058130000000     0.532510000000     0.783000000000    -0.00877978 
C196     C      0.977860000000     0.532070000000     0.784210000000    -0.00808347 
C197     C      0.959970000000     0.864240000000     0.748260000000    -0.00468354 
C198     C      0.021940000000     0.860090000000     0.710080000000    -0.00876094 
C199     C      0.980700000000     0.830140000000     0.769250000000    -0.00761355 
C200     C      0.044040000000     0.826860000000     0.731710000000    -0.00759586 
C201     C      0.975670000000     0.529410000000     0.510780000000    -0.00810831 
C202     C      0.056550000000     0.529120000000     0.010120000000    -0.0118714  
C203     C      0.976300000000     0.494150000000     0.535980000000    -0.00751454 
C204     C      0.056530000000     0.493010000000     0.034800000000    -0.00735663 
C205     C      0.056170000000     0.676680000000     0.903720000000    -0.00907649 
C206     C      0.975250000000     0.677650000000     0.903920000000    -0.00888934 
C207     C      0.056130000000     0.706530000000     0.874770000000    -0.00864965 
C208     C      0.975910000000     0.707300000000     0.874880000000    -0.00825062 
C209     C      0.055250000000     0.652150000000     0.655490000000    -0.00859256 
C210     C      0.975020000000     0.653940000000     0.655210000000    -0.00838511 
C211     C      0.056570000000     0.681370000000     0.626240000000    -0.00876549 
C212     C      0.975660000000     0.683050000000     0.625900000000    -0.00858176 
C213     C      0.987920000000     0.826560000000     0.540500000000    -0.0068233  
C214     C      0.048500000000     0.828280000000     0.500630000000    -0.00698747 
C215     C      0.967360000000     0.865370000000     0.024190000000    -0.00708398 
C216     C      0.024860000000     0.862940000000     0.981930000000    -0.00205362 
C217     C      0.489950000000     0.971970000000     0.743560000000    -0.00845199 
C218     C      0.490490000000     0.052720000000     0.744370000000    -0.00873329 
C219     C      0.528380000000     0.971490000000     0.766190000000    -0.0082494  
C220     C      0.529370000000     0.051820000000     0.766690000000    -0.00854528 
C221     C      0.191510000000     0.982040000000     0.763810000000    -0.00641658 
C222     C      0.191130000000     0.045150000000     0.725990000000    -0.0072602  
C223     C      0.156760000000     0.960460000000     0.744010000000    -0.00565612 
C224     C      0.157390000000     0.022170000000     0.705550000000    -0.00895382 
C225     C      0.490950000000     0.971020000000     0.982570000000    -0.00510976 
C226     C      0.491220000000     0.051380000000     0.983130000000    -0.00546971 
C227     C      0.527990000000     0.970340000000     0.506400000000    -0.0081729  
C228     C      0.528300000000     0.051090000000     0.506940000000    -0.00826921 
C229     C      0.319930000000     0.055950000000     0.855160000000    -0.00829525 
C230     C      0.320010000000     0.975610000000     0.855410000000    -0.00737089 
C231     C      0.343380000000     0.056250000000     0.887210000000    -0.00869178 
C232     C      0.345690000000     0.975320000000     0.886120000000    -0.00773153 
C233     C      0.332760000000     0.969060000000     0.635690000000    -0.00844976 
C234     C      0.337450000000     0.049800000000     0.634680000000    -0.00773881 
C235     C      0.361710000000     0.967050000000     0.606270000000    -0.00799543 
C236     C      0.367970000000     0.047130000000     0.606510000000    -0.00766589 
C237     C      0.194020000000     0.044170000000     0.522440000000    -0.00778135 
C238     C      0.192290000000     0.979850000000     0.985760000000    -0.00220331 
C239     C      0.157740000000     0.024000000000     0.542380000000    -0.0086971  
C240     C      0.155460000000     0.961010000000     0.005120000000    -0.0112956  
H1       H      0.049330000000     0.408690000000     0.395430000000     0.0345478  
H2       H      0.965600000000     0.404720000000     0.396580000000     0.0340343  
H3       H      0.942420000000     0.348030000000     0.361080000000     0.0381079  
H4       H      0.079140000000     0.371950000000     0.419770000000     0.0381059  
H5       H      0.080600000000     0.351870000000     0.362800000000     0.0380731  
H6       H      0.055890000000     0.311220000000     0.386900000000     0.0349675  
H7       H      0.940950000000     0.363260000000     0.419940000000     0.0377865  
H8       H      0.968090000000     0.307710000000     0.384840000000     0.0352773  
H9       H      0.057700000000     0.282110000000     0.131640000000     0.0340133  
H10      H      0.973640000000     0.285640000000     0.134190000000     0.03353    
H11      H      0.948210000000     0.343620000000     0.168460000000     0.0380585  
H12      H      0.085140000000     0.322860000000     0.109370000000     0.0377665  
H13      H      0.085980000000     0.333770000000     0.169020000000     0.0378847  
H14      H      0.064450000000     0.378000000000     0.146900000000     0.0348997  
H15      H      0.946810000000     0.326090000000     0.111220000000     0.0376585  
H16      H      0.976350000000     0.382850000000     0.145180000000     0.0359959  
H17      H      0.955240000000     0.181490000000     0.266950000000     0.0371111  
H18      H      0.022440000000     0.184250000000     0.308790000000     0.0333565  
H19      H      0.067810000000     0.129120000000     0.289270000000     0.0364712  
H20      H      0.959140000000     0.217920000000     0.233640000000     0.0353189  
H21      H      0.972060000000     0.143350000000     0.216870000000     0.0353184  
H22      H      0.019550000000     0.175760000000     0.211520000000     0.0375049  
H23      H      0.068800000000     0.212610000000     0.295210000000     0.0364038  
H24      H      0.084350000000     0.160350000000     0.255800000000     0.0330014  
H25      H      0.019250000000     0.194870000000     0.453500000000     0.0337399  
H26      H      0.952650000000     0.184590000000     0.493940000000     0.036552   
H27      H      0.969910000000     0.140330000000     0.041100000000     0.0338996  
H28      H      0.064720000000     0.223330000000     0.468730000000     0.036059   
H29      H      0.067700000000     0.139820000000     0.469240000000     0.0360063  
H30      H      0.081880000000     0.167300000000     0.005090000000     0.0304563  
H31      H      0.954420000000     0.216270000000     0.029940000000     0.0364399  
H32      H      0.016100000000     0.173550000000     0.049440000000     0.0367557  
H33      H      0.833500000000     0.012970000000     0.200790000000     0.0350119  
H34      H      0.841400000000     0.951610000000     0.246690000000     0.0363063  
H35      H      0.887320000000     0.976930000000     0.290550000000     0.0345599  
H36      H      0.801560000000     0.058800000000     0.210990000000     0.0349894  
H37      H      0.882890000000     0.069410000000     0.214760000000     0.0337753  
H38      H      0.853070000000     0.081990000000     0.250070000000     0.033996   
H39      H      0.809460000000     0.960030000000     0.282030000000     0.0339483  
H40      H      0.853020000000     0.023060000000     0.296480000000     0.0371847  
H41      H      0.734510000000     0.054550000000     0.371280000000     0.034387   
H42      H      0.731000000000     0.970380000000     0.373660000000     0.0340494  
H43      H      0.671160000000     0.944650000000     0.406390000000     0.0382794  
H44      H      0.694420000000     0.082040000000     0.348300000000     0.0380673  
H45      H      0.681030000000     0.082840000000     0.407410000000     0.0380193  
H46      H      0.637970000000     0.060160000000     0.384510000000     0.0345106  
H47      H      0.691360000000     0.943500000000     0.349890000000     0.0379331  
H48      H      0.633430000000     0.973960000000     0.382490000000     0.0355268  
H49      H      0.720590000000     0.963530000000     0.140090000000     0.0345973  
H50      H      0.716850000000     0.051510000000     0.138170000000     0.0340542  
H51      H      0.664320000000     0.075340000000     0.099090000000     0.0379346  
H52      H      0.675270000000     0.937540000000     0.158070000000     0.0378177  
H53      H      0.675090000000     0.937490000000     0.098040000000     0.0376968  
H54      H      0.627890000000     0.959910000000     0.116060000000     0.0339587  
H55      H      0.671220000000     0.075510000000     0.157320000000     0.0379024  
H56      H      0.622480000000     0.045210000000     0.118200000000     0.0346646  
H57      H      0.851180000000     0.020720000000     0.447940000000     0.0367721  
H58      H      0.851890000000     0.084750000000     0.489900000000     0.0340763  
H59      H      0.805390000000     0.066130000000     0.033860000000     0.0355943  
H60      H      0.886100000000     0.975780000000     0.456310000000     0.0332246  
H61      H      0.807650000000     0.960860000000     0.467940000000     0.0345015  
H62      H      0.841910000000     0.955150000000     0.002270000000     0.0338936  
H63      H      0.885100000000     0.078180000000     0.024500000000     0.0329435  
H64      H      0.838990000000     0.021830000000     0.044690000000     0.0358987  
H65      H      0.974100000000     0.507550000000     0.236410000000     0.0354602  
H66      H      0.061130000000     0.505580000000     0.235760000000     0.0349395  
H67      H      0.086910000000     0.552410000000     0.277860000000     0.0376605  
H68      H      0.947970000000     0.474840000000     0.265750000000     0.0381223  
H69      H      0.948440000000     0.551690000000     0.280770000000     0.0380368  
H70      H      0.976960000000     0.518910000000     0.308790000000     0.0346797  
H71      H      0.086380000000     0.473420000000     0.265810000000     0.0378655  
H72      H      0.061050000000     0.520480000000     0.307810000000     0.0342341  
H73      H      0.003110000000     0.842620000000     0.191710000000     0.0365347  
H74      H      0.937280000000     0.847860000000     0.231850000000     0.0342495  
H75      H      0.955230000000     0.810240000000     0.280490000000     0.0363722  
H76      H      0.046700000000     0.879990000000     0.197950000000     0.0324204  
H77      H      0.062890000000     0.804190000000     0.216770000000     0.034465   
H78      H      0.066610000000     0.844000000000     0.247790000000     0.0365196  
H79      H      0.941140000000     0.886970000000     0.263200000000     0.0313595  
H80      H      0.998210000000     0.846780000000     0.288710000000     0.0371168  
H81      H      0.058970000000     0.514360000000     0.486100000000     0.0349227  
H82      H      0.972670000000     0.514050000000     0.487010000000     0.0357841  
H83      H      0.946680000000     0.474510000000     0.033820000000     0.0373439  
H84      H      0.085560000000     0.549280000000     0.513740000000     0.0381238  
H85      H      0.085310000000     0.472520000000     0.531190000000     0.0377524  
H86      H      0.058960000000     0.507770000000     0.058820000000     0.0342689  
H87      H      0.946840000000     0.549770000000     0.014560000000     0.0383266  
H88      H      0.975920000000     0.509660000000     0.059810000000     0.0342378  
H89      H      0.971260000000     0.644090000000     0.395430000000     0.0354375  
H90      H      0.059220000000     0.643070000000     0.395120000000     0.0354051  
H91      H      0.085120000000     0.699840000000     0.360180000000     0.0375382  
H92      H      0.946770000000     0.685720000000     0.418680000000     0.0379542  
H93      H      0.946680000000     0.701320000000     0.360390000000     0.0379152  
H94      H      0.974370000000     0.741010000000     0.383480000000     0.0336037  
H95      H      0.084980000000     0.683950000000     0.418360000000     0.0379757  
H96      H      0.058390000000     0.740170000000     0.383420000000     0.0336346  
H97      H      0.972390000000     0.620130000000     0.146980000000     0.0342965  
H98      H      0.056390000000     0.618290000000     0.147180000000     0.0342077  
H99      H      0.085140000000     0.672790000000     0.111730000000     0.0376261  
H100     H      0.945990000000     0.661320000000     0.169570000000     0.0377704  
H101     H      0.946910000000     0.675810000000     0.111200000000     0.0382784  
H102     H      0.972870000000     0.716880000000     0.134060000000     0.0349052  
H103     H      0.084430000000     0.658000000000     0.170060000000     0.0381966  
H104     H      0.060680000000     0.715040000000     0.134450000000     0.0352055  
H105     H      0.071330000000     0.843910000000     0.017350000000     0.0371726  
H106     H      0.007190000000     0.838570000000     0.060900000000     0.0347574  
H107     H      0.952570000000     0.886690000000     0.042360000000     0.0362164  
H108     H      0.067050000000     0.807870000000     0.483800000000     0.0343109  
H109     H      0.048840000000     0.882930000000     0.469080000000     0.0352532  
H110     H      0.003600000000     0.847270000000     0.464120000000     0.0366853  
H111     H      0.962430000000     0.805380000000     0.050350000000     0.0357313  
H112     H      0.941060000000     0.853380000000     0.508670000000     0.0338609  
H113     H      0.502370000000     0.056340000000     0.219570000000     0.0348457  
H114     H      0.502180000000     0.969270000000     0.218790000000     0.0353695  
H115     H      0.547760000000     0.942240000000     0.261480000000     0.0379274  
H116     H      0.470810000000     0.081460000000     0.250040000000     0.0379039  
H117     H      0.549450000000     0.080620000000     0.262060000000     0.0378972  
H118     H      0.517460000000     0.053970000000     0.291580000000     0.0345582  
H119     H      0.469870000000     0.943230000000     0.248420000000     0.0380489  
H120     H      0.516030000000     0.969270000000     0.290960000000     0.0345246  
H121     H      0.174360000000     0.067120000000     0.242730000000     0.0357851  
H122     H      0.175580000000     0.999600000000     0.283580000000     0.0358194  
H123     H      0.135590000000     0.940850000000     0.259610000000     0.0345787  
H124     H      0.212280000000     0.064640000000     0.210300000000     0.0351135  
H125     H      0.136610000000     0.046450000000     0.193740000000     0.0362149  
H126     H      0.174240000000     0.003270000000     0.186910000000     0.0364148  
H127     H      0.212610000000     0.957220000000     0.274630000000     0.0358219  
H128     H      0.172720000000     0.938370000000     0.226940000000     0.0343948  
H129     H      0.504960000000     0.053530000000     0.458770000000     0.0345576  
H130     H      0.504740000000     0.969440000000     0.458190000000     0.034286   
H131     H      0.547960000000     0.941430000000     0.001870000000     0.0378048  
H132     H      0.471360000000     0.080490000000     0.487170000000     0.0378248  
H133     H      0.548480000000     0.079960000000     0.502830000000     0.0380437  
H134     H      0.514610000000     0.053560000000     0.031300000000     0.0347438  
H135     H      0.470900000000     0.941920000000     0.986110000000     0.0380674  
H136     H      0.514270000000     0.967360000000     0.030720000000     0.0352375  
H137     H      0.285310000000     0.973760000000     0.361490000000     0.03332    
H138     H      0.284890000000     0.058670000000     0.359800000000     0.0337272  
H139     H      0.331470000000     0.083890000000     0.401410000000     0.037765   
H140     H      0.328310000000     0.946380000000     0.341580000000     0.0378267  
H141     H      0.336840000000     0.946030000000     0.399710000000     0.0379627  
H142     H      0.380390000000     0.973040000000     0.380100000000     0.0357751  
H143     H      0.329900000000     0.084680000000     0.341350000000     0.0377036  
H144     H      0.378150000000     0.061570000000     0.382670000000     0.0346385  
H145     H      0.304270000000     0.054280000000     0.125480000000     0.0348316  
H146     H      0.298790000000     0.967440000000     0.127650000000     0.0349766  
H147     H      0.352470000000     0.938780000000     0.091690000000     0.037585   
H148     H      0.345860000000     0.078600000000     0.148960000000     0.0381001  
H149     H      0.364760000000     0.076780000000     0.092040000000     0.0378948  
H150     H      0.401400000000     0.045930000000     0.115780000000     0.0343965  
H151     H      0.339050000000     0.940340000000     0.150660000000     0.0380613  
H152     H      0.395350000000     0.962220000000     0.114400000000     0.0338556  
H153     H      0.178270000000     0.997220000000     0.465120000000     0.0370627  
H154     H      0.179530000000     0.066950000000     0.505140000000     0.0366621  
H155     H      0.137520000000     0.049820000000     0.052860000000     0.0322653  
H156     H      0.212320000000     0.953340000000     0.476100000000     0.0366597  
H157     H      0.133750000000     0.942290000000     0.489310000000     0.0316273  
H158     H      0.169370000000     0.938490000000     0.022860000000     0.0349521  
H159     H      0.215760000000     0.062540000000     0.038420000000     0.034626   
H160     H      0.172460000000     0.005180000000     0.062020000000     0.0366702  
H161     H      0.049330000000     0.408690000000     0.895430000000     0.0347502  
H162     H      0.965600000000     0.404720000000     0.896580000000     0.0342537  
H163     H      0.942420000000     0.348030000000     0.861080000000     0.0382358  
H164     H      0.079140000000     0.371950000000     0.919770000000     0.0384524  
H165     H      0.080600000000     0.351870000000     0.862800000000     0.0382031  
H166     H      0.055890000000     0.311220000000     0.886900000000     0.0351353  
H167     H      0.940950000000     0.363260000000     0.919940000000     0.03814    
H168     H      0.968090000000     0.307710000000     0.884840000000     0.0354436  
H169     H      0.057700000000     0.282110000000     0.631640000000     0.0340602  
H170     H      0.973640000000     0.285640000000     0.634190000000     0.0335707  
H171     H      0.948210000000     0.343620000000     0.668470000000     0.0381169  
H172     H      0.085140000000     0.322860000000     0.609370000000     0.0378757  
H173     H      0.085980000000     0.333770000000     0.669020000000     0.0379426  
H174     H      0.064450000000     0.378000000000     0.646900000000     0.0349462  
H175     H      0.946810000000     0.326090000000     0.611220000000     0.0377582  
H176     H      0.976350000000     0.382850000000     0.645180000000     0.0360324  
H177     H      0.955240000000     0.181490000000     0.766950000000     0.0371449  
H178     H      0.022440000000     0.184250000000     0.808790000000     0.0334153  
H179     H      0.067810000000     0.129120000000     0.789270000000     0.0365118  
H180     H      0.959140000000     0.217920000000     0.733630000000     0.0353322  
H181     H      0.972060000000     0.143350000000     0.716870000000     0.035332   
H182     H      0.019550000000     0.175760000000     0.711520000000     0.0375181  
H183     H      0.068800000000     0.212610000000     0.795210000000     0.0364652  
H184     H      0.084350000000     0.160350000000     0.755800000000     0.0330295  
H185     H      0.019250000000     0.194870000000     0.953500000000     0.0343361  
H186     H      0.952650000000     0.184590000000     0.993940000000     0.0395677  
H187     H      0.969910000000     0.140330000000     0.541100000000     0.0344583  
H188     H      0.064720000000     0.223330000000     0.968730000000     0.0371913  
H189     H      0.067700000000     0.139820000000     0.969240000000     0.0354447  
H190     H      0.081880000000     0.167300000000     0.505090000000     0.0332025  
H191     H      0.954420000000     0.216270000000     0.529940000000     0.0355857  
H192     H      0.016100000000     0.173550000000     0.549440000000     0.0372027  
H193     H      0.833500000000     0.012970000000     0.700790000000     0.0350238  
H194     H      0.841400000000     0.951610000000     0.746690000000     0.036355   
H195     H      0.887320000000     0.976930000000     0.790550000000     0.034594   
H196     H      0.801560000000     0.058800000000     0.710990000000     0.0350161  
H197     H      0.882890000000     0.069410000000     0.714760000000     0.03379    
H198     H      0.853070000000     0.081990000000     0.750070000000     0.0340309  
H199     H      0.809460000000     0.960030000000     0.782030000000     0.0340241  
H200     H      0.853020000000     0.023060000000     0.796480000000     0.0372258  
H201     H      0.734510000000     0.054550000000     0.871280000000     0.0345269  
H202     H      0.731000000000     0.970380000000     0.873660000000     0.0342055  
H203     H      0.671160000000     0.944650000000     0.906390000000     0.0386202  
H204     H      0.694420000000     0.082040000000     0.848300000000     0.0381807  
H205     H      0.681030000000     0.082840000000     0.907410000000     0.0383415  
H206     H      0.637970000000     0.060160000000     0.884510000000     0.0347155  
H207     H      0.691360000000     0.943500000000     0.849890000000     0.038057   
H208     H      0.633430000000     0.973960000000     0.882490000000     0.0357249  
H209     H      0.720590000000     0.963520000000     0.640090000000     0.0346228  
H210     H      0.716850000000     0.051510000000     0.638170000000     0.0340876  
H211     H      0.664320000000     0.075340000000     0.599090000000     0.0380556  
H212     H      0.675270000000     0.937540000000     0.658070000000     0.0378713  
H213     H      0.675090000000     0.937490000000     0.598040000000     0.0378107  
H214     H      0.627890000000     0.959910000000     0.616060000000     0.0340427  
H215     H      0.671220000000     0.075510000000     0.657320000000     0.0379563  
H216     H      0.622480000000     0.045210000000     0.618200000000     0.0347462  
H217     H      0.851180000000     0.020720000000     0.947940000000     0.0373223  
H218     H      0.851890000000     0.084750000000     0.989900000000     0.037      
H219     H      0.805390000000     0.066130000000     0.533860000000     0.0361885  
H220     H      0.886100000000     0.975780000000     0.956310000000     0.0338683  
H221     H      0.807650000000     0.960860000000     0.967940000000     0.0341664  
H222     H      0.841910000000     0.955150000000     0.502270000000     0.036645   
H223     H      0.885100000000     0.078180000000     0.524500000000     0.0323464  
H224     H      0.838990000000     0.021830000000     0.544690000000     0.0363214  
H225     H      0.974100000000     0.507550000000     0.736410000000     0.0354916  
H226     H      0.061130000000     0.505580000000     0.735760000000     0.0349726  
H227     H      0.086910000000     0.552410000000     0.777860000000     0.0377434  
H228     H      0.947970000000     0.474840000000     0.765750000000     0.0381911  
H229     H      0.948440000000     0.551690000000     0.780770000000     0.0381204  
H230     H      0.976960000000     0.518900000000     0.808790000000     0.0347806  
H231     H      0.086380000000     0.473420000000     0.765810000000     0.0379364  
H232     H      0.061050000000     0.520480000000     0.807810000000     0.0343414  
H233     H      0.003110000000     0.842620000000     0.691710000000     0.0365517  
H234     H      0.937280000000     0.847860000000     0.731850000000     0.034279   
H235     H      0.955230000000     0.810240000000     0.780490000000     0.0364256  
H236     H      0.046700000000     0.879990000000     0.697950000000     0.0324394  
H237     H      0.062890000000     0.804190000000     0.716770000000     0.0344963  
H238     H      0.066610000000     0.844000000000     0.747790000000     0.0365472  
H239     H      0.941140000000     0.886960000000     0.763200000000     0.0313908  
H240     H      0.998210000000     0.846780000000     0.788710000000     0.0371581  
H241     H      0.058970000000     0.514360000000     0.986100000000     0.0376102  
H242     H      0.972670000000     0.514040000000     0.987010000000     0.0384807  
H243     H      0.946680000000     0.474510000000     0.533820000000     0.0379536  
H244     H      0.085560000000     0.549280000000     0.013740000000     0.0383869  
H245     H      0.085310000000     0.472520000000     0.031190000000     0.0371142  
H246     H      0.058960000000     0.507770000000     0.558820000000     0.0344615  
H247     H      0.946840000000     0.549770000000     0.514560000000     0.0380444  
H248     H      0.975920000000     0.509660000000     0.559810000000     0.0344201  
H249     H      0.971260000000     0.644090000000     0.895430000000     0.0356779  
H250     H      0.059220000000     0.643070000000     0.895120000000     0.0356379  
H251     H      0.085120000000     0.699840000000     0.860180000000     0.0376529  
H252     H      0.946770000000     0.685720000000     0.918680000000     0.0383311  
H253     H      0.946680000000     0.701320000000     0.860390000000     0.0380515  
H254     H      0.974370000000     0.741010000000     0.883480000000     0.0337827  
H255     H      0.084980000000     0.683950000000     0.918350000000     0.0383013  
H256     H      0.058390000000     0.740170000000     0.883420000000     0.0337732  
H257     H      0.972390000000     0.620120000000     0.646980000000     0.0343228  
H258     H      0.056390000000     0.618290000000     0.647180000000     0.0342484  
H259     H      0.085140000000     0.672790000000     0.611730000000     0.0377256  
H260     H      0.945990000000     0.661320000000     0.669570000000     0.0378191  
H261     H      0.946910000000     0.675810000000     0.611200000000     0.0383655  
H262     H      0.972870000000     0.716880000000     0.634060000000     0.0349383  
H263     H      0.084430000000     0.658000000000     0.670060000000     0.0382592  
H264     H      0.060680000000     0.715040000000     0.634450000000     0.0352455  
H265     H      0.071330000000     0.843910000000     0.517350000000     0.0364185  
H266     H      0.007190000000     0.838570000000     0.560900000000     0.0346938  
H267     H      0.952570000000     0.886690000000     0.542360000000     0.0363234  
H268     H      0.067050000000     0.807870000000     0.983800000000     0.0374561  
H269     H      0.048840000000     0.882930000000     0.969080000000     0.0345821  
H270     H      0.003600000000     0.847270000000     0.964120000000     0.0362331  
H271     H      0.962430000000     0.805380000000     0.550350000000     0.0357703  
H272     H      0.941060000000     0.853390000000     0.008670000000     0.0332144  
H273     H      0.502370000000     0.056340000000     0.719570000000     0.034902   
H274     H      0.502180000000     0.969270000000     0.718790000000     0.0354242  
H275     H      0.547760000000     0.942240000000     0.761480000000     0.0380032  
H276     H      0.470810000000     0.081460000000     0.750040000000     0.0379751  
H277     H      0.549450000000     0.080620000000     0.762060000000     0.0379722  
H278     H      0.517460000000     0.053970000000     0.791580000000     0.0346365  
H279     H      0.469870000000     0.943230000000     0.748420000000     0.0381187  
H280     H      0.516030000000     0.969270000000     0.790960000000     0.0346031  
H281     H      0.174360000000     0.067120000000     0.742730000000     0.035813   
H282     H      0.175580000000     0.999600000000     0.783580000000     0.0358567  
H283     H      0.135590000000     0.940850000000     0.759610000000     0.0346056  
H284     H      0.212280000000     0.064640000000     0.710300000000     0.0351482  
H285     H      0.136610000000     0.046450000000     0.693740000000     0.0362326  
H286     H      0.174240000000     0.003270000000     0.686910000000     0.036445   
H287     H      0.212610000000     0.957220000000     0.774630000000     0.0358639  
H288     H      0.172720000000     0.938370000000     0.726940000000     0.0344298  
H289     H      0.504960000000     0.053530000000     0.958770000000     0.0344949  
H290     H      0.504740000000     0.969440000000     0.958190000000     0.0342228  
H291     H      0.547960000000     0.941440000000     0.501860000000     0.0379     
H292     H      0.471360000000     0.080490000000     0.987170000000     0.0379707  
H293     H      0.548480000000     0.079960000000     0.002830000000     0.0379315  
H294     H      0.514610000000     0.053560000000     0.531300000000     0.0346758  
H295     H      0.470900000000     0.941920000000     0.486110000000     0.0379321  
H296     H      0.514270000000     0.967360000000     0.530720000000     0.0351516  
H297     H      0.285310000000     0.973750000000     0.861490000000     0.0334055  
H298     H      0.284890000000     0.058670000000     0.859800000000     0.0338488  
H299     H      0.331470000000     0.083890000000     0.901410000000     0.0379827  
H300     H      0.328310000000     0.946380000000     0.841580000000     0.0379095  
H301     H      0.336840000000     0.946030000000     0.899710000000     0.0381176  
H302     H      0.380390000000     0.973040000000     0.880100000000     0.0358557  
H303     H      0.329900000000     0.084680000000     0.841350000000     0.0378043  
H304     H      0.378150000000     0.061570000000     0.882670000000     0.0347297  
H305     H      0.304270000000     0.054280000000     0.625480000000     0.0349102  
H306     H      0.298790000000     0.967440000000     0.627650000000     0.0350755  
H307     H      0.352470000000     0.938780000000     0.591690000000     0.0378681  
H308     H      0.345860000000     0.078600000000     0.648960000000     0.0381867  
H309     H      0.364760000000     0.076780000000     0.592040000000     0.0381565  
H310     H      0.401400000000     0.045930000000     0.615780000000     0.0345702  
H311     H      0.339050000000     0.940340000000     0.650660000000     0.038154   
H312     H      0.395350000000     0.962210000000     0.614400000000     0.0340303  
H313     H      0.178270000000     0.997220000000     0.965120000000     0.0365145  
H314     H      0.179530000000     0.066950000000     0.005150000000     0.0359344  
H315     H      0.137520000000     0.049820000000     0.552860000000     0.0322727  
H316     H      0.212320000000     0.953340000000     0.976100000000     0.0360486  
H317     H      0.133750000000     0.942280000000     0.989310000000     0.0346931  
H318     H      0.169370000000     0.938490000000     0.522860000000     0.0342182  
H319     H      0.215760000000     0.062540000000     0.538420000000     0.0348209  
H320     H      0.172460000000     0.005180000000     0.562020000000     0.0366577  
N1       N      0.011660000000     0.345710000000     0.358560000000    -0.17867    
N2       N      0.009910000000     0.368410000000     0.423430000000    -0.179091   
N3       N      0.017500000000     0.343080000000     0.172260000000    -0.1783     
N4       N      0.015940000000     0.323490000000     0.106660000000    -0.178831   
N5       N      0.023310000000     0.132540000000     0.250280000000    -0.179434   
N6       N      0.011820000000     0.219030000000     0.266670000000    -0.179425   
N7       N      0.021960000000     0.136400000000     0.507490000000    -0.180965   
N8       N      0.007970000000     0.223630000000     0.497970000000    -0.180708   
N9       N      0.888460000000     0.024650000000     0.253580000000    -0.18098    
N10      N      0.802230000000     0.007020000000     0.244980000000    -0.181269   
N11      N      0.673440000000     0.014020000000     0.410280000000    -0.180919   
N12      N      0.693790000000     0.012770000000     0.345690000000    -0.181052   
N13      N      0.668260000000     0.006240000000     0.094950000000    -0.180579   
N14      N      0.676850000000     0.006550000000     0.161400000000    -0.180607   
N15      N      0.803070000000     0.010840000000     0.503000000000    -0.179628   
N16      N      0.888870000000     0.028170000000     0.989350000000    -0.178687   
N17      N      0.017750000000     0.556810000000     0.280060000000    -0.179397   
N18      N      0.017190000000     0.469530000000     0.263190000000    -0.179113   
N19      N      0.011730000000     0.804220000000     0.251050000000    -0.179498   
N20      N      0.992700000000     0.886410000000     0.229280000000    -0.180156   
N21      N      0.016000000000     0.468900000000     0.532660000000    -0.180595   
N22      N      0.016180000000     0.553870000000     0.511940000000    -0.1804     
N23      N      0.015950000000     0.701430000000     0.356730000000    -0.179345   
N24      N      0.015800000000     0.680650000000     0.421940000000    -0.178973   
N25      N      0.016220000000     0.678270000000     0.108020000000    -0.179205   
N26      N      0.015100000000     0.658920000000     0.173360000000    -0.179394   
N27      N      0.998590000000     0.888240000000     0.504130000000    -0.18066    
N28      N      0.016870000000     0.803410000000     0.518760000000    -0.181197   
N29      N      0.553350000000     0.011390000000     0.262910000000    -0.179541   
N30      N      0.465730000000     0.012460000000     0.246610000000    -0.179445   
N31      N      0.132750000000     0.992950000000     0.226000000000    -0.181198   
N32      N      0.215520000000     0.013150000000     0.244350000000    -0.181269   
N33      N      0.552670000000     0.010620000000     0.504440000000    -0.180339   
N34      N      0.466540000000     0.011260000000     0.485880000000    -0.180441   
N35      N      0.338280000000     0.015130000000     0.404230000000    -0.18034    
N36      N      0.328070000000     0.015670000000     0.337890000000    -0.180503   
N37      N      0.359220000000     0.007640000000     0.088450000000    -0.181057   
N38      N      0.339200000000     0.009640000000     0.153170000000    -0.18064    
N39      N      0.132490000000     0.995130000000     0.022140000000    -0.178982   
N40      N      0.217420000000     0.010600000000     0.504810000000    -0.179441   
N41      N      0.011660000000     0.345710000000     0.858560000000    -0.178649   
N42      N      0.009910000000     0.368410000000     0.923430000000    -0.178868   
N43      N      0.017500000000     0.343080000000     0.672260000000    -0.178296   
N44      N      0.015940000000     0.323490000000     0.606660000000    -0.178862   
N45      N      0.023310000000     0.132540000000     0.750280000000    -0.17943    
N46      N      0.011820000000     0.219030000000     0.766670000000    -0.179415   
N47      N      0.021960000000     0.136400000000     0.007490000000    -0.18247    
N48      N      0.007970000000     0.223630000000     0.997970000000    -0.177332   
N49      N      0.888460000000     0.024650000000     0.753580000000    -0.180978   
N50      N      0.802230000000     0.007020000000     0.744980000000    -0.181247   
N51      N      0.673440000000     0.014020000000     0.910280000000    -0.180691   
N52      N      0.693790000000     0.012770000000     0.845690000000    -0.181034   
N53      N      0.668260000000     0.006240000000     0.594950000000    -0.180601   
N54      N      0.676850000000     0.006550000000     0.661400000000    -0.180678   
N55      N      0.803070000000     0.010840000000     0.003000000000    -0.181463   
N56      N      0.888870000000     0.028170000000     0.489350000000    -0.180106   
N57      N      0.017750000000     0.556810000000     0.780060000000    -0.179373   
N58      N      0.017190000000     0.469530000000     0.763190000000    -0.1791     
N59      N      0.011730000000     0.804220000000     0.751050000000    -0.179489   
N60      N      0.992700000000     0.886410000000     0.729280000000    -0.180152   
N61      N      0.016000000000     0.468900000000     0.032660000000    -0.181033   
N62      N      0.016180000000     0.553870000000     0.011940000000    -0.179841   
N63      N      0.015950000000     0.701430000000     0.856730000000    -0.179335   
N64      N      0.015800000000     0.680650000000     0.921940000000    -0.178743   
N65      N      0.016220000000     0.678270000000     0.608020000000    -0.179245   
N66      N      0.015100000000     0.658920000000     0.673360000000    -0.179391   
N67      N      0.998590000000     0.888230000000     0.004130000000    -0.181768   
N68      N      0.016870000000     0.803420000000     0.018760000000    -0.180546   
N69      N      0.553350000000     0.011390000000     0.762910000000    -0.179522   
N70      N      0.465730000000     0.012460000000     0.746610000000    -0.17943    
N71      N      0.132750000000     0.992950000000     0.726000000000    -0.181193   
N72      N      0.215520000000     0.013150000000     0.744350000000    -0.181259   
N73      N      0.552670000000     0.010620000000     0.004440000000    -0.180052   
N74      N      0.466540000000     0.011260000000     0.985880000000    -0.180731   
N75      N      0.338280000000     0.015130000000     0.904230000000    -0.180355   
N76      N      0.328070000000     0.015670000000     0.837880000000    -0.180575   
N77      N      0.359220000000     0.007640000000     0.588450000000    -0.180834   
N78      N      0.339200000000     0.009640000000     0.653170000000    -0.180631   
N79      N      0.132490000000     0.995130000000     0.522140000000    -0.179981   
N80      N      0.217420000000     0.010600000000     0.004810000000    -0.180739   
O1       O      0.281550000000     0.046810000000     0.003670000000    -0.555821   
O2       O      0.402670000000     0.047100000000     0.492030000000    -0.557635   
O3       O      0.335430000000     0.049010000000     0.452740000000    -0.557922   
O4       O      0.349970000000     0.045080000000     0.042160000000    -0.564962   
O5       O      0.347140000000     0.973610000000     0.040810000000    -0.56192    
O6       O      0.338080000000     0.977540000000     0.450990000000    -0.563437   
O7       O      0.402770000000     0.975540000000     0.992220000000    -0.560844   
O8       O      0.281350000000     0.975480000000     0.498680000000    -0.559185   
O9       O      0.279540000000     0.048760000000     0.241950000000    -0.55809    
O10      O      0.401290000000     0.048500000000     0.247290000000    -0.556705   
O11      O      0.343370000000     0.046810000000     0.200040000000    -0.561744   
O12      O      0.336340000000     0.050390000000     0.290030000000    -0.557602   
O13      O      0.339340000000     0.978920000000     0.291530000000    -0.56375    
O14      O      0.339890000000     0.975360000000     0.201510000000    -0.560603   
O15      O      0.401070000000     0.976970000000     0.246660000000    -0.55924    
O16      O      0.279320000000     0.977410000000     0.247130000000    -0.561404   
O17      O      0.052180000000     0.739620000000     0.014510000000    -0.560633   
O18      O      0.052050000000     0.618050000000     0.514410000000    -0.560092   
O19      O      0.051860000000     0.679110000000     0.469600000000    -0.556438   
O20      O      0.052140000000     0.678620000000     0.060090000000    -0.553781   
O21      O      0.980580000000     0.676260000000     0.060300000000    -0.557622   
O22      O      0.980330000000     0.681910000000     0.470020000000    -0.554862   
O23      O      0.980480000000     0.618260000000     0.013070000000    -0.559546   
O24      O      0.980620000000     0.739760000000     0.518280000000    -0.558642   
O25      O      0.049570000000     0.741350000000     0.255610000000    -0.551055   
O26      O      0.052520000000     0.621290000000     0.272850000000    -0.55232    
O27      O      0.050980000000     0.670020000000     0.220270000000    -0.556387   
O28      O      0.051370000000     0.692570000000     0.309100000000    -0.553322   
O29      O      0.979900000000     0.688710000000     0.310030000000    -0.556467   
O30      O      0.979400000000     0.670930000000     0.220510000000    -0.554626   
O31      O      0.980970000000     0.619640000000     0.271900000000    -0.558624   
O32      O      0.978060000000     0.740120000000     0.259450000000    -0.557975   
O33      O      0.739030000000     0.974780000000     0.000180000000    -0.555343   
O34      O      0.616990000000     0.974670000000     0.502940000000    -0.557992   
O35      O      0.676210000000     0.976650000000     0.457010000000    -0.564277   
O36      O      0.678580000000     0.972560000000     0.046960000000    -0.558865   
O37      O      0.675500000000     0.044010000000     0.048590000000    -0.563241   
O38      O      0.679150000000     0.048110000000     0.458570000000    -0.559515   
O39      O      0.617040000000     0.046230000000     0.002640000000    -0.560739   
O40      O      0.738760000000     0.046080000000     0.505490000000    -0.558334   
O41      O      0.738520000000     0.972720000000     0.252840000000    -0.560614   
O42      O      0.616920000000     0.974740000000     0.257370000000    -0.558787   
O43      O      0.675100000000     0.971930000000     0.209650000000    -0.559021   
O44      O      0.681560000000     0.975720000000     0.299600000000    -0.563525   
O45      O      0.686070000000     0.047090000000     0.297710000000    -0.560332   
O46      O      0.672320000000     0.043410000000     0.208310000000    -0.564201   
O47      O      0.618090000000     0.046270000000     0.258130000000    -0.557405   
O48      O      0.739090000000     0.044020000000     0.247080000000    -0.559083   
O49      O      0.076840000000     0.003600000000     0.487680000000    -0.558267   
O50      O      0.957610000000     0.017920000000     0.471540000000    -0.552838   
O51      O      0.025250000000     0.072430000000     0.480590000000    -0.555078   
O52      O      0.011460000000     0.951520000000     0.478950000000    -0.562377   
O53      O      0.996270000000     0.952240000000     0.030910000000    -0.555909   
O54      O      0.010170000000     0.072930000000     0.032570000000    -0.564038   
O55      O      0.944740000000     0.020950000000     0.023820000000    -0.560256   
O56      O      0.063990000000     0.006480000000     0.039990000000    -0.55237    
O57      O      0.066210000000     0.010510000000     0.207430000000    -0.559069   
O58      O      0.945990000000     0.019320000000     0.220170000000    -0.558692   
O59      O      0.010380000000     0.074040000000     0.219220000000    -0.560523   
O60      O      0.001510000000     0.953480000000     0.208170000000    -0.553878   
O61      O      0.002990000000     0.944720000000     0.260960000000    -0.556207   
O62      O      0.026900000000     0.063910000000     0.270380000000    -0.550072   
O63      O      0.955940000000     0.013400000000     0.272680000000    -0.559468   
O64      O      0.074210000000     0.992810000000     0.258590000000    -0.560078   
O65      O      0.975110000000     0.287150000000     0.009120000000    -0.563298   
O66      O      0.978750000000     0.406840000000     0.523380000000    -0.563284   
O67      O      0.975400000000     0.356880000000     0.471190000000    -0.553799   
O68      O      0.978790000000     0.337110000000     0.060530000000    -0.556273   
O69      O      0.050170000000     0.332490000000     0.058470000000    -0.550415   
O70      O      0.046960000000     0.357950000000     0.469970000000    -0.555378   
O71      O      0.050310000000     0.404790000000     0.023570000000    -0.555866   
O72      O      0.046470000000     0.285730000000     0.503970000000    -0.554109   
O73      O      0.977940000000     0.283990000000     0.263830000000    -0.557645   
O74      O      0.980360000000     0.405720000000     0.264930000000    -0.557561   
O75      O      0.980700000000     0.345260000000     0.219560000000    -0.556931   
O76      O      0.977440000000     0.344440000000     0.309970000000    -0.553948   
O77      O      0.048970000000     0.345970000000     0.311370000000    -0.552948   
O78      O      0.052110000000     0.340780000000     0.220830000000    -0.548392   
O79      O      0.051920000000     0.404350000000     0.264310000000    -0.552119   
O80      O      0.049310000000     0.282310000000     0.268780000000    -0.550673   
O81      O      0.281550000000     0.046810000000     0.503670000000    -0.554056   
O82      O      0.402670000000     0.047100000000     0.992030000000    -0.558034   
O83      O      0.335430000000     0.049010000000     0.952740000000    -0.558527   
O84      O      0.349970000000     0.045080000000     0.542160000000    -0.562596   
O85      O      0.347140000000     0.973610000000     0.540810000000    -0.559885   
O86      O      0.338080000000     0.977540000000     0.950990000000    -0.563798   
O87      O      0.402770000000     0.975540000000     0.492220000000    -0.560983   
O88      O      0.281350000000     0.975480000000     0.998680000000    -0.556913   
O89      O      0.279540000000     0.048760000000     0.741950000000    -0.558071   
O90      O      0.401290000000     0.048500000000     0.747290000000    -0.556674   
O91      O      0.343370000000     0.046810000000     0.700040000000    -0.56172    
O92      O      0.336340000000     0.050390000000     0.790030000000    -0.557602   
O93      O      0.339340000000     0.978920000000     0.791530000000    -0.563755   
O94      O      0.339890000000     0.975360000000     0.701510000000    -0.560576   
O95      O      0.401070000000     0.976970000000     0.746660000000    -0.559209   
O96      O      0.279320000000     0.977410000000     0.747130000000    -0.561387   
O97      O      0.052180000000     0.739620000000     0.514510000000    -0.560466   
O98      O      0.052050000000     0.618050000000     0.014410000000    -0.560059   
O99      O      0.051860000000     0.679110000000     0.969600000000    -0.554401   
O100     O      0.052140000000     0.678620000000     0.560090000000    -0.554431   
O101     O      0.980580000000     0.676260000000     0.560300000000    -0.558137   
O102     O      0.980330000000     0.681910000000     0.970020000000    -0.552657   
O103     O      0.980480000000     0.618260000000     0.513070000000    -0.559535   
O104     O      0.980620000000     0.739760000000     0.018280000000    -0.558592   
O105     O      0.049570000000     0.741350000000     0.755610000000    -0.551038   
O106     O      0.052520000000     0.621290000000     0.772850000000    -0.55228    
O107     O      0.050980000000     0.670020000000     0.720270000000    -0.556371   
O108     O      0.051370000000     0.692570000000     0.809100000000    -0.553275   
O109     O      0.979900000000     0.688710000000     0.810030000000    -0.556405   
O110     O      0.979400000000     0.670930000000     0.720510000000    -0.554611   
O111     O      0.980970000000     0.619640000000     0.771900000000    -0.558587   
O112     O      0.978060000000     0.740120000000     0.759450000000    -0.557959   
O113     O      0.739030000000     0.974780000000     0.500180000000    -0.554968   
O114     O      0.616990000000     0.974670000000     0.002940000000    -0.557985   
O115     O      0.676210000000     0.976650000000     0.957010000000    -0.562053   
O116     O      0.678580000000     0.972560000000     0.546960000000    -0.559373   
O117     O      0.675500000000     0.044010000000     0.548590000000    -0.563757   
O118     O      0.679150000000     0.048110000000     0.958570000000    -0.557303   
O119     O      0.617040000000     0.046230000000     0.502640000000    -0.56071    
O120     O      0.738760000000     0.046080000000     0.005490000000    -0.558495   
O121     O      0.738520000000     0.972720000000     0.752840000000    -0.560592   
O122     O      0.616920000000     0.974740000000     0.757370000000    -0.558753   
O123     O      0.675100000000     0.971930000000     0.709650000000    -0.558909   
O124     O      0.681560000000     0.975720000000     0.799600000000    -0.563484   
O125     O      0.686070000000     0.047090000000     0.797710000000    -0.560294   
O126     O      0.672320000000     0.043410000000     0.708310000000    -0.564095   
O127     O      0.618090000000     0.046270000000     0.758130000000    -0.55737    
O128     O      0.739090000000     0.044020000000     0.747080000000    -0.559064   
O129     O      0.076840000000     0.003600000000     0.987680000000    -0.555858   
O130     O      0.957610000000     0.017920000000     0.971540000000    -0.553447   
O131     O      0.025250000000     0.072430000000     0.980590000000    -0.552927   
O132     O      0.011460000000     0.951520000000     0.978950000000    -0.560267   
O133     O      0.996270000000     0.952240000000     0.530910000000    -0.556724   
O134     O      0.010170000000     0.072930000000     0.532570000000    -0.564861   
O135     O      0.944740000000     0.020950000000     0.523830000000    -0.558251   
O136     O      0.063990000000     0.006480000000     0.539990000000    -0.553298   
O137     O      0.066210000000     0.010510000000     0.707430000000    -0.559062   
O138     O      0.945990000000     0.019320000000     0.720170000000    -0.558689   
O139     O      0.010380000000     0.074040000000     0.719220000000    -0.560519   
O140     O      0.001510000000     0.953480000000     0.708170000000    -0.553873   
O141     O      0.002990000000     0.944720000000     0.760960000000    -0.556197   
O142     O      0.026900000000     0.063910000000     0.770380000000    -0.550058   
O143     O      0.955940000000     0.013400000000     0.772680000000    -0.559454   
O144     O      0.074210000000     0.992810000000     0.758590000000    -0.560069   
O145     O      0.975110000000     0.287150000000     0.509120000000    -0.563545   
O146     O      0.978750000000     0.406840000000     0.023380000000    -0.563136   
O147     O      0.975400000000     0.356880000000     0.971190000000    -0.551588   
O148     O      0.978790000000     0.337110000000     0.560530000000    -0.556682   
O149     O      0.050170000000     0.332490000000     0.558470000000    -0.55113    
O150     O      0.046960000000     0.357950000000     0.969970000000    -0.553327   
O151     O      0.050310000000     0.404790000000     0.523570000000    -0.555967   
O152     O      0.046470000000     0.285730000000     0.003970000000    -0.554045   
O153     O      0.977940000000     0.283990000000     0.763830000000    -0.557621   
O154     O      0.980360000000     0.405720000000     0.764930000000    -0.557531   
O155     O      0.980700000000     0.345260000000     0.719560000000    -0.556919   
O156     O      0.977440000000     0.344440000000     0.809970000000    -0.553905   
O157     O      0.048970000000     0.345970000000     0.811370000000    -0.552905   
O158     O      0.052110000000     0.340780000000     0.720830000000    -0.548375   
O159     O      0.051920000000     0.404350000000     0.764310000000    -0.552088   
O160     O      0.049310000000     0.282310000000     0.768780000000    -0.550651   
V1       V      0.342200000000     0.049900000000     0.497710000000     1.38688    
V2       V      0.342150000000     0.972680000000     0.495720000000     1.39967    
V3       V      0.340340000000     0.051520000000     0.244850000000     1.38841    
V4       V      0.340100000000     0.974300000000     0.246710000000     1.40044    
V5       V      0.054930000000     0.678840000000     0.514720000000     1.38887    
V6       V      0.977630000000     0.679040000000     0.515320000000     1.38977    
V7       V      0.054000000000     0.681420000000     0.264510000000     1.37369    
V8       V      0.976750000000     0.679770000000     0.265400000000     1.3902     
V9       V      0.677920000000     0.971770000000     0.501750000000     1.39188    
V10      V      0.677830000000     0.048990000000     0.503810000000     1.39713    
V11      V      0.677750000000     0.970890000000     0.254870000000     1.39651    
V12      V      0.678750000000     0.048100000000     0.252830000000     1.39505    
V13      V      0.018170000000     0.011630000000     0.477560000000     1.38876    
V14      V      0.003440000000     0.012920000000     0.033950000000     1.38872    
V15      V      0.005660000000     0.014520000000     0.211570000000     1.39093    
V16      V      0.015550000000     0.003510000000     0.267830000000     1.38567    
V17      V      0.974170000000     0.347100000000     0.516060000000     1.39702    
V18      V      0.051380000000     0.345140000000     0.514000000000     1.37529    
V19      V      0.976280000000     0.344900000000     0.264590000000     1.39049    
V20      V      0.053470000000     0.343280000000     0.266320000000     1.3674     
V21      V      0.342200000000     0.049900000000     0.997710000000     1.39276    
V22      V      0.342150000000     0.972680000000     0.995720000000     1.40193    
V23      V      0.340340000000     0.051520000000     0.744850000000     1.38849    
V24      V      0.340100000000     0.974300000000     0.746710000000     1.40051    
V25      V      0.054930000000     0.678840000000     0.014710000000     1.38594    
V26      V      0.977630000000     0.679040000000     0.015320000000     1.38698    
V27      V      0.054000000000     0.681420000000     0.764510000000     1.37376    
V28      V      0.976750000000     0.679770000000     0.765400000000     1.39027    
V29      V      0.677920000000     0.971780000000     0.001750000000     1.38891    
V30      V      0.677830000000     0.048990000000     0.003810000000     1.39408    
V31      V      0.677750000000     0.970890000000     0.754870000000     1.39658    
V32      V      0.678750000000     0.048100000000     0.752830000000     1.39512    
V33      V      0.018170000000     0.011630000000     0.977560000000     1.391      
V34      V      0.003440000000     0.012920000000     0.533950000000     1.39178    
V35      V      0.005660000000     0.014520000000     0.711570000000     1.39089    
V36      V      0.015550000000     0.003510000000     0.767830000000     1.3857     
V37      V      0.974170000000     0.347090000000     0.016060000000     1.39412    
V38      V      0.051380000000     0.345140000000     0.013990000000     1.37229    
V39      V      0.976280000000     0.344900000000     0.764590000000     1.39055    
V40      V      0.053470000000     0.343280000000     0.766320000000     1.36747    


