data_structure

_audit_creation_method RASPA-1.0
_audit_creation_date 2023-5-22
_audit_author_name 'Poobodin Mano'

_cell_length_a    41.5205
_cell_length_b    41.8683
_cell_length_c    41.6065
_cell_angle_alpha 90
_cell_angle_beta  90
_cell_angle_gamma 90
_cell_volume      72328.4

_symmetry_cell_setting          triclinic
_symmetry_space_group_name_Hall 'P 1'
_symmetry_space_group_name_H-M  'P 1'
_symmetry_Int_Tables_number     1

_symmetry_equiv_pos_as_xyz 'x,y,z'

loop_
_atom_site_label
_atom_site_type_symbol
_atom_site_fract_x
_atom_site_fract_y
_atom_site_fract_z
_atom_site_charge
C1       C      0.015550000000     0.504650000000     0.318110000000     0.474056   
C2       C      0.008780000000     0.515220000000     0.197150000000     0.473734   
C3       C      0.512810000000     0.449500000000     0.251360000000     0.474245   
C4       C      0.511530000000     0.069790000000     0.264640000000     0.473128   
C5       C      0.511270000000     0.258770000000     0.325480000000     0.47712    
C6       C      0.512390000000     0.261910000000     0.204180000000     0.477471   
C7       C      0.011550000000     0.321100000000     0.267150000000     0.474226   
C8       C      0.012120000000     0.200190000000     0.261770000000     0.474213   
C9       C      0.258980000000     0.001350000000     0.311160000000     0.452052   
C10      C      0.265530000000     0.000950000000     0.189960000000     0.452598   
C11      C      0.260920000000     0.062000000000     0.250050000000     0.468676   
C12      C      0.263670000000     0.440880000000     0.250580000000     0.471441   
C13      C      0.258130000000     0.251350000000     0.330690000000     0.472152   
C14      C      0.264820000000     0.252460000000     0.209050000000     0.471695   
C15      C      0.258980000000     0.191150000000     0.269550000000     0.471572   
C16      C      0.263890000000     0.312270000000     0.270940000000     0.472169   
C17      C      0.021320000000     0.504110000000     0.448760000000     0.4746     
C18      C      0.001390000000     0.522190000000     0.067380000000     0.474196   
C19      C      0.071570000000     0.011520000000     0.018060000000     0.455378   
C20      C      0.451240000000     0.015120000000     0.997560000000     0.455222   
C21      C      0.519440000000     0.247710000000     0.453810000000     0.477146   
C22      C      0.507950000000     0.262340000000     0.073720000000     0.47705    
C23      C      0.452890000000     0.258400000000     0.008740000000     0.472501   
C24      C      0.074350000000     0.251260000000     0.019450000000     0.473102   
C25      C      0.264480000000     0.515250000000     0.440820000000     0.473933   
C26      C      0.255470000000     0.516100000000     0.061880000000     0.474925   
C27      C      0.320810000000     0.017280000000     0.005880000000     0.45414    
C28      C      0.199070000000     0.013690000000     0.997580000000     0.454665   
C29      C      0.250190000000     0.247050000000     0.461130000000     0.472796   
C30      C      0.275070000000     0.261630000000     0.079510000000     0.472258   
C31      C      0.321840000000     0.258430000000     0.005800000000     0.473077   
C32      C      0.203370000000     0.250540000000     0.034230000000     0.474143   
C33      C      0.401020000000     0.230280000000     0.011920000000    -0.00769442 
C34      C      0.402710000000     0.290780000000     0.009240000000    -0.0102792  
C35      C      0.371860000000     0.230680000000     0.490030000000    -0.00704151 
C36      C      0.370520000000     0.290140000000     0.490700000000    -0.0086651  
C37      C      0.153580000000     0.218870000000     0.545120000000    -0.00873642 
C38      C      0.152370000000     0.278300000000     0.046500000000    -0.00669914 
C39      C      0.124490000000     0.218740000000     0.522060000000    -0.0095845  
C40      C      0.126570000000     0.279190000000     0.020690000000    -0.00779876 
C41      C      0.401200000000     0.045820000000     0.485850000000    -0.010169   
C42      C      0.399700000000     0.486220000000     0.990380000000    -0.00740015 
C43      C      0.371970000000     0.048180000000     0.508380000000    -0.0104499  
C44      C      0.372110000000     0.488400000000     0.014410000000    -0.00844492 
C45      C      0.123010000000     0.040570000000     0.025240000000    -0.008592   
C46      C      0.122790000000     0.480920000000     0.022270000000    -0.00908919 
C47      C      0.146810000000     0.042270000000     0.497390000000    -0.00940533 
C48      C      0.148180000000     0.482260000000     0.495370000000    -0.00918916 
C49      C      0.287850000000     0.230460000000     0.159260000000    -0.00813849 
C50      C      0.243760000000     0.272150000000     0.157390000000    -0.00732404 
C51      C      0.303230000000     0.245530000000     0.129380000000    -0.00682512 
C52      C      0.261700000000     0.289170000000     0.130120000000    -0.00815624 
C53      C      0.279510000000     0.233120000000     0.382600000000    -0.00685629 
C54      C      0.236150000000     0.275510000000     0.379790000000    -0.00821742 
C55      C      0.262080000000     0.217890000000     0.411130000000    -0.00789188 
C56      C      0.221800000000     0.262720000000     0.411250000000    -0.00711536 
C57      C      0.289880000000     0.020850000000     0.139880000000    -0.00909927 
C58      C      0.247520000000     0.477630000000     0.138740000000    -0.0066815  
C59      C      0.271390000000     0.039210000000     0.113910000000    -0.00830277 
C60      C      0.230600000000     0.494630000000     0.111050000000    -0.00658675 
C61      C      0.232710000000     0.019590000000     0.360900000000    -0.00891862 
C62      C      0.277210000000     0.478560000000     0.362540000000    -0.00721511 
C63      C      0.248860000000     0.037770000000     0.388450000000    -0.00814768 
C64      C      0.291330000000     0.494830000000     0.392240000000    -0.00728114 
C65      C      0.234180000000     0.389490000000     0.249240000000    -0.00812605 
C66      C      0.294650000000     0.390040000000     0.247890000000    -0.00911766 
C67      C      0.235070000000     0.363880000000     0.275240000000    -0.00794269 
C68      C      0.295400000000     0.362840000000     0.272680000000    -0.0087685  
C69      C      0.287200000000     0.139480000000     0.276330000000    -0.0081379  
C70      C      0.227390000000     0.140610000000     0.267800000000    -0.00889179 
C71      C      0.290510000000     0.113350000000     0.251050000000    -0.00823906 
C72      C      0.230490000000     0.112880000000     0.243760000000    -0.00925473 
C73      C      0.521280000000     0.291870000000     0.123030000000    -0.00703441 
C74      C      0.479700000000     0.248000000000     0.123570000000    -0.00669829 
C75      C      0.037080000000     0.277590000000     0.152950000000    -0.00650164 
C76      C      0.993270000000     0.235690000000     0.155310000000    -0.00665761 
C77      C      0.048150000000     0.262310000000     0.404290000000    -0.00556367 
C78      C      0.003220000000     0.221910000000     0.403230000000    -0.00801934 
C79      C      0.533060000000     0.279890000000     0.376000000000    -0.00680404 
C80      C      0.486690000000     0.240680000000     0.376200000000    -0.00709567 
C81      C      0.030700000000     0.034970000000     0.145930000000    -0.00531249 
C82      C      0.486040000000     0.493760000000     0.147390000000    -0.00810752 
C83      C      0.014130000000     0.051150000000     0.117310000000    -0.0111709  
C84      C      0.471810000000     0.508250000000     0.116810000000    -0.00611899 
C85      C      0.050310000000     0.018010000000     0.398950000000    -0.0201551  
C86      C      0.510350000000     0.472920000000     0.399800000000    -0.00747842 
C87      C      0.036630000000     0.029470000000     0.366830000000    -0.00525586 
C88      C      0.493870000000     0.486440000000     0.369850000000    -0.00667935 
C89      C      0.981290000000     0.372200000000     0.269020000000    -0.00827613 
C90      C      0.041750000000     0.372040000000     0.272020000000    -0.00839841 
C91      C      0.482900000000     0.398720000000     0.243820000000    -0.00783648 
C92      C      0.543160000000     0.398600000000     0.246810000000    -0.00829588 
C93      C      0.481920000000     0.149870000000     0.253280000000    -0.00818552 
C94      C      0.042500000000     0.149710000000     0.255000000000    -0.00829047 
C95      C      0.481180000000     0.119910000000     0.274220000000    -0.00825248 
C96      C      0.041540000000     0.119740000000     0.275900000000    -0.00808268 
C97      C      0.015550000000     0.504650000000     0.818110000000     0.474054   
C98      C      0.008780000000     0.515220000000     0.697150000000     0.473732   
C99      C      0.512810000000     0.449500000000     0.751360000000     0.474241   
C100     C      0.511530000000     0.069790000000     0.764650000000     0.473109   
C101     C      0.511270000000     0.258770000000     0.825480000000     0.477076   
C102     C      0.512390000000     0.261910000000     0.704180000000     0.477483   
C103     C      0.011550000000     0.321100000000     0.767150000000     0.474238   
C104     C      0.012120000000     0.200190000000     0.761770000000     0.474224   
C105     C      0.258980000000     0.001350000000     0.811160000000     0.45218    
C106     C      0.265530000000     0.000950000000     0.689960000000     0.452598   
C107     C      0.260920000000     0.062000000000     0.750050000000     0.468676   
C108     C      0.263670000000     0.440880000000     0.750580000000     0.471441   
C109     C      0.258130000000     0.251350000000     0.830690000000     0.472247   
C110     C      0.264820000000     0.252460000000     0.709050000000     0.471679   
C111     C      0.258980000000     0.191150000000     0.769550000000     0.471565   
C112     C      0.263890000000     0.312270000000     0.770940000000     0.472165   
C113     C      0.021320000000     0.504110000000     0.948760000000     0.4746     
C114     C      0.001390000000     0.522190000000     0.567380000000     0.474271   
C115     C      0.071570000000     0.011520000000     0.518060000000     0.455441   
C116     C      0.451240000000     0.015120000000     0.497550000000     0.454958   
C117     C      0.519440000000     0.247710000000     0.953820000000     0.477187   
C118     C      0.507950000000     0.262340000000     0.573720000000     0.477068   
C119     C      0.452890000000     0.258400000000     0.508740000000     0.472569   
C120     C      0.074350000000     0.251260000000     0.519450000000     0.473164   
C121     C      0.264480000000     0.515250000000     0.940820000000     0.473825   
C122     C      0.255470000000     0.516100000000     0.561880000000     0.474865   
C123     C      0.320810000000     0.017280000000     0.505880000000     0.454211   
C124     C      0.199070000000     0.013690000000     0.497580000000     0.45442    
C125     C      0.250190000000     0.247050000000     0.961140000000     0.472838   
C126     C      0.275070000000     0.261630000000     0.579510000000     0.472282   
C127     C      0.321840000000     0.258430000000     0.505800000000     0.473302   
C128     C      0.203370000000     0.250540000000     0.534220000000     0.474224   
C129     C      0.401020000000     0.230280000000     0.511920000000    -0.00745041 
C130     C      0.402710000000     0.290780000000     0.509240000000    -0.00975629 
C131     C      0.371860000000     0.230680000000     0.990030000000    -0.00679816 
C132     C      0.370520000000     0.290140000000     0.990700000000    -0.00835489 
C133     C      0.153580000000     0.218870000000     0.045120000000    -0.00865783 
C134     C      0.152370000000     0.278300000000     0.546500000000    -0.00678604 
C135     C      0.124490000000     0.218740000000     0.022060000000    -0.0098845  
C136     C      0.126570000000     0.279190000000     0.520690000000    -0.00749295 
C137     C      0.401200000000     0.045820000000     0.985850000000    -0.00992529 
C138     C      0.399700000000     0.486220000000     0.490380000000    -0.0076482  
C139     C      0.371970000000     0.048180000000     0.008380000000    -0.010693   
C140     C      0.372110000000     0.488400000000     0.514410000000    -0.00819568 
C141     C      0.123010000000     0.040570000000     0.525240000000    -0.00835095 
C142     C      0.122790000000     0.480920000000     0.522260000000    -0.00883491 
C143     C      0.146810000000     0.042270000000     0.997390000000    -0.00914471 
C144     C      0.148180000000     0.482260000000     0.995370000000    -0.00894355 
C145     C      0.287850000000     0.230460000000     0.659260000000    -0.0081312  
C146     C      0.243760000000     0.272150000000     0.657390000000    -0.0073203  
C147     C      0.303230000000     0.245530000000     0.629390000000    -0.00684643 
C148     C      0.261700000000     0.289170000000     0.630120000000    -0.00815873 
C149     C      0.279510000000     0.233120000000     0.882600000000    -0.00684685 
C150     C      0.236150000000     0.275510000000     0.879790000000    -0.00821155 
C151     C      0.262080000000     0.217890000000     0.911130000000    -0.00792408 
C152     C      0.221800000000     0.262720000000     0.911250000000    -0.00713606 
C153     C      0.289880000000     0.020850000000     0.639880000000    -0.00909925 
C154     C      0.247520000000     0.477630000000     0.638740000000    -0.00668179 
C155     C      0.271390000000     0.039210000000     0.613910000000    -0.00830833 
C156     C      0.230600000000     0.494630000000     0.611050000000    -0.00659271 
C157     C      0.232710000000     0.019590000000     0.860900000000    -0.00893245 
C158     C      0.277210000000     0.478560000000     0.862540000000    -0.00721397 
C159     C      0.248860000000     0.037770000000     0.888450000000    -0.00814247 
C160     C      0.291330000000     0.494830000000     0.892240000000    -0.00728849 
C161     C      0.234180000000     0.389490000000     0.749240000000    -0.00812517 
C162     C      0.294650000000     0.390040000000     0.747890000000    -0.00911782 
C163     C      0.235070000000     0.363880000000     0.775240000000    -0.00794438 
C164     C      0.295400000000     0.362840000000     0.772680000000    -0.00876844 
C165     C      0.287200000000     0.139480000000     0.776330000000    -0.00813205 
C166     C      0.227390000000     0.140610000000     0.767800000000    -0.00887902 
C167     C      0.290510000000     0.113350000000     0.751040000000    -0.0082596  
C168     C      0.230490000000     0.112880000000     0.743770000000    -0.00921607 
C169     C      0.521280000000     0.291870000000     0.623030000000    -0.00703542 
C170     C      0.479700000000     0.248000000000     0.623570000000    -0.00669884 
C171     C      0.037080000000     0.277590000000     0.652950000000    -0.00650097 
C172     C      0.993270000000     0.235690000000     0.655310000000    -0.00665804 
C173     C      0.048150000000     0.262310000000     0.904290000000    -0.00559776 
C174     C      0.003220000000     0.221910000000     0.903220000000    -0.00807851 
C175     C      0.533060000000     0.279890000000     0.876000000000    -0.00678545 
C176     C      0.486690000000     0.240680000000     0.876200000000    -0.00707386 
C177     C      0.030700000000     0.034970000000     0.645930000000    -0.00531598 
C178     C      0.486040000000     0.493760000000     0.647390000000    -0.00810992 
C179     C      0.014130000000     0.051150000000     0.617310000000    -0.0111655  
C180     C      0.471810000000     0.508250000000     0.616810000000    -0.00611614 
C181     C      0.050310000000     0.018010000000     0.898950000000    -0.0201488  
C182     C      0.510350000000     0.472920000000     0.899800000000    -0.00749251 
C183     C      0.036630000000     0.029470000000     0.866830000000    -0.00525977 
C184     C      0.493870000000     0.486440000000     0.869850000000    -0.00667298 
C185     C      0.981290000000     0.372200000000     0.769020000000    -0.00826068 
C186     C      0.041750000000     0.372040000000     0.772020000000    -0.00839709 
C187     C      0.482900000000     0.398720000000     0.743810000000    -0.00788094 
C188     C      0.543160000000     0.398600000000     0.746810000000    -0.00829642 
C189     C      0.481920000000     0.149870000000     0.753280000000    -0.00818596 
C190     C      0.042500000000     0.149710000000     0.755000000000    -0.00828853 
C191     C      0.481180000000     0.119910000000     0.774220000000    -0.00824991 
C192     C      0.041540000000     0.119740000000     0.775900000000    -0.00808247 
C193     C      0.015550000000     0.004650000000     0.318110000000     0.472102   
C194     C      0.008780000000     0.015220000000     0.197150000000     0.471575   
C195     C      0.512810000000     0.949510000000     0.251360000000     0.471973   
C196     C      0.511530000000     0.569790000000     0.264640000000     0.474316   
C197     C      0.511270000000     0.758770000000     0.325480000000     0.4771     
C198     C      0.512390000000     0.761910000000     0.204180000000     0.477453   
C199     C      0.011550000000     0.821100000000     0.267150000000     0.474197   
C200     C      0.012120000000     0.700190000000     0.261770000000     0.474169   
C201     C      0.258980000000     0.501350000000     0.311160000000     0.474322   
C202     C      0.265530000000     0.500950000000     0.189960000000     0.474814   
C203     C      0.260920000000     0.562000000000     0.250050000000     0.47123    
C204     C      0.263670000000     0.940880000000     0.250580000000     0.467472   
C205     C      0.258130000000     0.751350000000     0.330690000000     0.472143   
C206     C      0.264820000000     0.752460000000     0.209050000000     0.471661   
C207     C      0.258980000000     0.691150000000     0.269550000000     0.471515   
C208     C      0.263890000000     0.812270000000     0.270940000000     0.472177   
C209     C      0.021320000000     0.004110000000     0.448760000000     0.443205   
C210     C      0.001390000000     0.022190000000     0.067380000000     0.454462   
C211     C      0.071570000000     0.511520000000     0.018060000000     0.473598   
C212     C      0.451240000000     0.515120000000     0.997560000000     0.473583   
C213     C      0.519440000000     0.747710000000     0.453810000000     0.477145   
C214     C      0.507950000000     0.762340000000     0.073720000000     0.477354   
C215     C      0.452890000000     0.758400000000     0.008740000000     0.472491   
C216     C      0.074350000000     0.751260000000     0.019450000000     0.473093   
C217     C      0.264480000000     0.015250000000     0.440820000000     0.456411   
C218     C      0.255470000000     0.016100000000     0.061880000000     0.45735    
C219     C      0.320810000000     0.517280000000     0.005880000000     0.472324   
C220     C      0.199070000000     0.513690000000     0.997580000000     0.472906   
C221     C      0.250190000000     0.747040000000     0.461130000000     0.472772   
C222     C      0.275070000000     0.761630000000     0.079510000000     0.47224    
C223     C      0.321840000000     0.758430000000     0.005800000000     0.473366   
C224     C      0.203370000000     0.750540000000     0.034230000000     0.473505   
C225     C      0.401020000000     0.730280000000     0.011920000000    -0.00780316 
C226     C      0.402710000000     0.790780000000     0.009240000000    -0.0102614  
C227     C      0.371860000000     0.730680000000     0.490030000000    -0.00703957 
C228     C      0.370520000000     0.790140000000     0.490700000000    -0.0086996  
C229     C      0.153580000000     0.718870000000     0.545120000000    -0.00878954 
C230     C      0.152370000000     0.778300000000     0.046500000000    -0.00671572 
C231     C      0.124490000000     0.718740000000     0.522060000000    -0.00961278 
C232     C      0.126570000000     0.779200000000     0.020690000000    -0.00795072 
C233     C      0.401200000000     0.545820000000     0.485850000000    -0.00881986 
C234     C      0.399700000000     0.986220000000     0.990380000000     0.001201   
C235     C      0.371970000000     0.548180000000     0.508380000000    -0.008936   
C236     C      0.372110000000     0.988400000000     0.014410000000     0.000267379
C237     C      0.123010000000     0.540570000000     0.025240000000    -0.00739019 
C238     C      0.122790000000     0.980920000000     0.022270000000    -0.00028075 
C239     C      0.146810000000     0.542270000000     0.497390000000    -0.00808771 
C240     C      0.148180000000     0.982260000000     0.495370000000    -0.000521769
C241     C      0.287850000000     0.730460000000     0.159260000000    -0.00819754 
C242     C      0.243760000000     0.772150000000     0.157390000000    -0.00733018 
C243     C      0.303230000000     0.745530000000     0.129380000000    -0.00686198 
C244     C      0.261700000000     0.789170000000     0.130120000000    -0.00823065 
C245     C      0.279510000000     0.733120000000     0.382600000000    -0.00690073 
C246     C      0.236150000000     0.775510000000     0.379790000000    -0.00829181 
C247     C      0.262080000000     0.717890000000     0.411130000000    -0.0079237  
C248     C      0.221800000000     0.762720000000     0.411250000000    -0.00711245 
C249     C      0.289880000000     0.520850000000     0.139880000000    -0.00758608 
C250     C      0.247520000000     0.977630000000     0.138740000000    -0.00338341 
C251     C      0.271390000000     0.539210000000     0.113910000000    -0.00755269 
C252     C      0.230600000000     0.994630000000     0.111050000000     0.0206122  
C253     C      0.232710000000     0.519590000000     0.360900000000    -0.00735173 
C254     C      0.277210000000     0.978560000000     0.362540000000    -0.00380832 
C255     C      0.248860000000     0.537770000000     0.388450000000    -0.0074161  
C256     C      0.291330000000     0.994830000000     0.392240000000     0.0199289  
C257     C      0.234180000000     0.889490000000     0.249240000000    -0.008357   
C258     C      0.294650000000     0.890040000000     0.247890000000    -0.00940439 
C259     C      0.235070000000     0.863880000000     0.275240000000    -0.0078884  
C260     C      0.295400000000     0.862840000000     0.272680000000    -0.00866585 
C261     C      0.287200000000     0.639480000000     0.276330000000    -0.00819105 
C262     C      0.227390000000     0.640610000000     0.267800000000    -0.00897269 
C263     C      0.290510000000     0.613350000000     0.251050000000    -0.00813615 
C264     C      0.230490000000     0.612870000000     0.243760000000    -0.0091303  
C265     C      0.521280000000     0.791860000000     0.123030000000    -0.00697415 
C266     C      0.479700000000     0.748000000000     0.123570000000    -0.00668283 
C267     C      0.037080000000     0.777590000000     0.152950000000    -0.0065596  
C268     C      0.993270000000     0.735680000000     0.155310000000    -0.00679989 
C269     C      0.048150000000     0.762310000000     0.404290000000    -0.00552205 
C270     C      0.003220000000     0.721910000000     0.403230000000    -0.00804053 
C271     C      0.533060000000     0.779900000000     0.376000000000    -0.00698841 
C272     C      0.486690000000     0.740680000000     0.376200000000    -0.00714721 
C273     C      0.030700000000     0.534970000000     0.145930000000    -0.00688066 
C274     C      0.486040000000     0.993760000000     0.147390000000     0.0236322  
C275     C      0.014130000000     0.551150000000     0.117310000000    -0.00815906 
C276     C      0.471810000000     0.008250000000     0.116810000000    -0.0427069  
C277     C      0.050310000000     0.518010000000     0.398950000000    -0.00678537 
C278     C      0.510350000000     0.972920000000     0.399800000000    -0.0157039  
C279     C      0.036630000000     0.529470000000     0.366830000000    -0.00816153 
C280     C      0.493870000000     0.986440000000     0.369850000000     0.0245116  
C281     C      0.981290000000     0.872190000000     0.269020000000    -0.00821054 
C282     C      0.041750000000     0.872040000000     0.272020000000    -0.00836838 
C283     C      0.482900000000     0.898720000000     0.243820000000    -0.00798168 
C284     C      0.543160000000     0.898600000000     0.246810000000    -0.00841982 
C285     C      0.481920000000     0.649880000000     0.253280000000    -0.00818842 
C286     C      0.042500000000     0.649710000000     0.255000000000    -0.00832876 
C287     C      0.481180000000     0.619910000000     0.274220000000    -0.00827277 
C288     C      0.041540000000     0.619740000000     0.275900000000    -0.00808305 
C289     C      0.015550000000     0.004650000000     0.818110000000     0.4721     
C290     C      0.008780000000     0.015220000000     0.697150000000     0.471573   
C291     C      0.512810000000     0.949510000000     0.751360000000     0.47197    
C292     C      0.511530000000     0.569790000000     0.764650000000     0.474297   
C293     C      0.511270000000     0.758770000000     0.825480000000     0.477056   
C294     C      0.512390000000     0.761910000000     0.704180000000     0.477465   
C295     C      0.011550000000     0.821100000000     0.767150000000     0.474209   
C296     C      0.012120000000     0.700190000000     0.761770000000     0.47418    
C297     C      0.258980000000     0.501350000000     0.811160000000     0.474451   
C298     C      0.265530000000     0.500950000000     0.689960000000     0.474814   
C299     C      0.260920000000     0.562000000000     0.750050000000     0.47123    
C300     C      0.263670000000     0.940880000000     0.750580000000     0.467472   
C301     C      0.258130000000     0.751350000000     0.830690000000     0.472239   
C302     C      0.264820000000     0.752460000000     0.709050000000     0.471645   
C303     C      0.258980000000     0.691150000000     0.769550000000     0.471508   
C304     C      0.263890000000     0.812270000000     0.770940000000     0.472173   
C305     C      0.021320000000     0.004110000000     0.948760000000     0.443206   
C306     C      0.001390000000     0.022190000000     0.567380000000     0.454535   
C307     C      0.071570000000     0.511520000000     0.518060000000     0.473663   
C308     C      0.451240000000     0.515120000000     0.497550000000     0.473316   
C309     C      0.519440000000     0.747710000000     0.953820000000     0.477186   
C310     C      0.507950000000     0.762340000000     0.573720000000     0.477372   
C311     C      0.452890000000     0.758400000000     0.508740000000     0.472559   
C312     C      0.074350000000     0.751260000000     0.519450000000     0.473154   
C313     C      0.264480000000     0.015250000000     0.940820000000     0.456304   
C314     C      0.255470000000     0.016100000000     0.561880000000     0.457296   
C315     C      0.320810000000     0.517280000000     0.505880000000     0.472397   
C316     C      0.199070000000     0.513690000000     0.497580000000     0.472661   
C317     C      0.250190000000     0.747040000000     0.961140000000     0.472813   
C318     C      0.275070000000     0.761630000000     0.579510000000     0.472264   
C319     C      0.321840000000     0.758430000000     0.505800000000     0.473591   
C320     C      0.203370000000     0.750540000000     0.534220000000     0.473586   
C321     C      0.401020000000     0.730280000000     0.511920000000    -0.007559   
C322     C      0.402710000000     0.790780000000     0.509240000000    -0.00973866 
C323     C      0.371860000000     0.730680000000     0.990030000000    -0.00679613 
C324     C      0.370520000000     0.790140000000     0.990700000000    -0.00838952 
C325     C      0.153580000000     0.718870000000     0.045120000000    -0.00871089 
C326     C      0.152370000000     0.778300000000     0.546500000000    -0.00680266 
C327     C      0.124490000000     0.718740000000     0.022060000000    -0.00991305 
C328     C      0.126570000000     0.779200000000     0.520690000000    -0.00764481 
C329     C      0.401200000000     0.545820000000     0.985850000000    -0.0085758  
C330     C      0.399700000000     0.986220000000     0.490380000000     0.000954186
C331     C      0.371970000000     0.548180000000     0.008380000000    -0.00918005 
C332     C      0.372110000000     0.988400000000     0.514410000000     0.000516348
C333     C      0.123010000000     0.540570000000     0.525240000000    -0.00714787 
C334     C      0.122790000000     0.980920000000     0.522260000000    -2.89345e-05
C335     C      0.146810000000     0.542270000000     0.997390000000    -0.00782625 
C336     C      0.148180000000     0.982260000000     0.995370000000    -0.000276239
C337     C      0.287850000000     0.730460000000     0.659260000000    -0.00819024 
C338     C      0.243760000000     0.772150000000     0.657390000000    -0.00732644 
C339     C      0.303230000000     0.745530000000     0.629390000000    -0.0068833  
C340     C      0.261700000000     0.789170000000     0.630120000000    -0.00823314 
C341     C      0.279510000000     0.733120000000     0.882600000000    -0.00689129 
C342     C      0.236150000000     0.775510000000     0.879790000000    -0.00828593 
C343     C      0.262080000000     0.717890000000     0.911130000000    -0.00795587 
C344     C      0.221800000000     0.762720000000     0.911250000000    -0.00713317 
C345     C      0.289880000000     0.520850000000     0.639880000000    -0.00758598 
C346     C      0.247520000000     0.977630000000     0.638740000000    -0.00338375 
C347     C      0.271390000000     0.539210000000     0.613910000000    -0.00755848 
C348     C      0.230600000000     0.994630000000     0.611050000000     0.0206076  
C349     C      0.232710000000     0.519590000000     0.860900000000    -0.00736289 
C350     C      0.277210000000     0.978560000000     0.862540000000    -0.0038105  
C351     C      0.248860000000     0.537770000000     0.888450000000    -0.00741138 
C352     C      0.291330000000     0.994830000000     0.892240000000     0.0199216  
C353     C      0.234180000000     0.889490000000     0.749240000000    -0.00835613 
C354     C      0.294650000000     0.890040000000     0.747890000000    -0.00940455 
C355     C      0.235070000000     0.863880000000     0.775240000000    -0.00789008 
C356     C      0.295400000000     0.862840000000     0.772680000000    -0.00866578 
C357     C      0.287200000000     0.639480000000     0.776330000000    -0.00818517 
C358     C      0.227390000000     0.640610000000     0.767800000000    -0.00895987 
C359     C      0.290510000000     0.613350000000     0.751040000000    -0.0081567  
C360     C      0.230490000000     0.612870000000     0.743770000000    -0.00909171 
C361     C      0.521280000000     0.791860000000     0.623030000000    -0.00697517 
C362     C      0.479700000000     0.748000000000     0.623570000000    -0.00668338 
C363     C      0.037080000000     0.777590000000     0.652950000000    -0.00655893 
C364     C      0.993270000000     0.735680000000     0.655310000000    -0.00680032 
C365     C      0.048150000000     0.762310000000     0.904290000000    -0.00555616 
C366     C      0.003220000000     0.721910000000     0.903220000000    -0.00809969 
C367     C      0.533060000000     0.779900000000     0.876000000000    -0.0069697  
C368     C      0.486690000000     0.740680000000     0.876200000000    -0.00712538 
C369     C      0.030700000000     0.534970000000     0.645930000000    -0.00688424 
C370     C      0.486040000000     0.993760000000     0.647390000000     0.0236307  
C371     C      0.014130000000     0.551150000000     0.617310000000    -0.00815348 
C372     C      0.471810000000     0.008250000000     0.616810000000    -0.0427054  
C373     C      0.050310000000     0.518010000000     0.898950000000    -0.00677939 
C374     C      0.510350000000     0.972920000000     0.899800000000    -0.0157193  
C375     C      0.036630000000     0.529470000000     0.866830000000    -0.00816554 
C376     C      0.493870000000     0.986440000000     0.869850000000     0.0245181  
C377     C      0.981290000000     0.872190000000     0.769020000000    -0.00819508 
C378     C      0.041750000000     0.872040000000     0.772020000000    -0.00836711 
C379     C      0.482900000000     0.898720000000     0.743810000000    -0.00802627 
C380     C      0.543160000000     0.898600000000     0.746810000000    -0.00842032 
C381     C      0.481920000000     0.649880000000     0.753280000000    -0.00818886 
C382     C      0.042500000000     0.649710000000     0.755000000000    -0.00832681 
C383     C      0.481180000000     0.619910000000     0.774220000000    -0.0082702  
C384     C      0.041540000000     0.619740000000     0.775900000000    -0.00808285 
C385     C      0.515550000000     0.504650000000     0.318110000000     0.474298   
C386     C      0.508780000000     0.515220000000     0.197150000000     0.473971   
C387     C      0.012810000000     0.449500000000     0.251360000000     0.473992   
C388     C      0.011530000000     0.069790000000     0.264640000000     0.472879   
C389     C      0.011260000000     0.258770000000     0.325480000000     0.476875   
C390     C      0.012400000000     0.261910000000     0.204180000000     0.477229   
C391     C      0.511550000000     0.321100000000     0.267150000000     0.474471   
C392     C      0.512120000000     0.200190000000     0.261770000000     0.474465   
C393     C      0.758980000000     0.001350000000     0.311160000000     0.452009   
C394     C      0.765530000000     0.000950000000     0.189960000000     0.452559   
C395     C      0.760920000000     0.062000000000     0.250050000000     0.468635   
C396     C      0.763680000000     0.440880000000     0.250580000000     0.471397   
C397     C      0.758130000000     0.251350000000     0.330690000000     0.472151   
C398     C      0.764820000000     0.252460000000     0.209050000000     0.471692   
C399     C      0.758980000000     0.191150000000     0.269550000000     0.471568   
C400     C      0.763880000000     0.312270000000     0.270940000000     0.47218    
C401     C      0.521320000000     0.504110000000     0.448760000000     0.47465    
C402     C      0.501390000000     0.522190000000     0.067380000000     0.474405   
C403     C      0.571570000000     0.011520000000     0.018060000000     0.455423   
C404     C      0.951250000000     0.015120000000     0.997560000000     0.455282   
C405     C      0.019440000000     0.247710000000     0.453810000000     0.47705    
C406     C      0.007950000000     0.262340000000     0.073720000000     0.477022   
C407     C      0.952890000000     0.258400000000     0.008740000000     0.472647   
C408     C      0.574350000000     0.251260000000     0.019450000000     0.47316    
C409     C      0.764480000000     0.515250000000     0.440820000000     0.473943   
C410     C      0.755470000000     0.516100000000     0.061880000000     0.474924   
C411     C      0.820810000000     0.017280000000     0.005880000000     0.45414    
C412     C      0.699070000000     0.013690000000     0.997580000000     0.454666   
C413     C      0.750190000000     0.247050000000     0.461130000000     0.472796   
C414     C      0.775070000000     0.261630000000     0.079510000000     0.472258   
C415     C      0.821840000000     0.258430000000     0.005800000000     0.473077   
C416     C      0.703370000000     0.250540000000     0.034230000000     0.474142   
C417     C      0.901010000000     0.230280000000     0.011920000000    -0.00772772 
C418     C      0.902710000000     0.290780000000     0.009240000000    -0.0102853  
C419     C      0.871860000000     0.230680000000     0.490030000000    -0.00702706 
C420     C      0.870520000000     0.290140000000     0.490700000000    -0.00866996 
C421     C      0.653590000000     0.218870000000     0.545120000000    -0.00871339 
C422     C      0.652370000000     0.278300000000     0.046500000000    -0.00671616 
C423     C      0.624490000000     0.218740000000     0.522060000000    -0.0095928  
C424     C      0.626560000000     0.279190000000     0.020690000000    -0.00776567 
C425     C      0.901200000000     0.045820000000     0.485850000000    -0.0101849  
C426     C      0.899700000000     0.486220000000     0.990380000000    -0.00740252 
C427     C      0.871960000000     0.048180000000     0.508380000000    -0.0104327  
C428     C      0.872120000000     0.488400000000     0.014410000000    -0.00846987 
C429     C      0.623010000000     0.040570000000     0.025240000000    -0.00858971 
C430     C      0.622800000000     0.480920000000     0.022270000000    -0.00913637 
C431     C      0.646810000000     0.042270000000     0.497390000000    -0.00940398 
C432     C      0.648190000000     0.482260000000     0.495370000000    -0.00914454 
C433     C      0.787850000000     0.230460000000     0.159260000000    -0.00816717 
C434     C      0.743760000000     0.272150000000     0.157390000000    -0.0073251  
C435     C      0.803230000000     0.245530000000     0.129380000000    -0.00681585 
C436     C      0.761700000000     0.289170000000     0.130120000000    -0.00815646 
C437     C      0.779510000000     0.233120000000     0.382600000000    -0.00686196 
C438     C      0.736150000000     0.275510000000     0.379790000000    -0.00821966 
C439     C      0.762070000000     0.217890000000     0.411130000000    -0.00784594 
C440     C      0.721800000000     0.262720000000     0.411250000000    -0.00711484 
C441     C      0.789880000000     0.020850000000     0.139880000000    -0.00910195 
C442     C      0.747520000000     0.477630000000     0.138740000000    -0.00668396 
C443     C      0.771390000000     0.039210000000     0.113910000000    -0.00830261 
C444     C      0.730600000000     0.494630000000     0.111050000000    -0.00658667 
C445     C      0.732710000000     0.019590000000     0.360900000000    -0.00893184 
C446     C      0.777200000000     0.478560000000     0.362540000000    -0.00714369 
C447     C      0.748860000000     0.037770000000     0.388450000000    -0.00810361 
C448     C      0.791330000000     0.494830000000     0.392240000000    -0.00733635 
C449     C      0.734180000000     0.389490000000     0.249240000000    -0.00812645 
C450     C      0.794650000000     0.390040000000     0.247890000000    -0.00913722 
C451     C      0.735070000000     0.363880000000     0.275240000000    -0.00791901 
C452     C      0.795400000000     0.362840000000     0.272680000000    -0.00875222 
C453     C      0.787200000000     0.139480000000     0.276330000000    -0.00814174 
C454     C      0.727380000000     0.140610000000     0.267800000000    -0.00901383 
C455     C      0.790510000000     0.113350000000     0.251050000000    -0.00823777 
C456     C      0.730490000000     0.112880000000     0.243760000000    -0.00920784 
C457     C      0.021280000000     0.291870000000     0.123030000000    -0.00703123 
C458     C      0.979700000000     0.248000000000     0.123570000000    -0.00666205 
C459     C      0.537080000000     0.277590000000     0.152950000000    -0.00644611 
C460     C      0.493260000000     0.235690000000     0.155310000000    -0.00709581 
C461     C      0.548160000000     0.262310000000     0.404290000000    -0.0056441  
C462     C      0.503220000000     0.221910000000     0.403230000000    -0.0075423  
C463     C      0.033060000000     0.279890000000     0.376000000000    -0.00683035 
C464     C      0.986690000000     0.240680000000     0.376200000000    -0.00669159 
C465     C      0.530700000000     0.034970000000     0.145930000000    -0.00541141 
C466     C      0.986040000000     0.493760000000     0.147390000000    -0.00766109 
C467     C      0.514130000000     0.051150000000     0.117310000000    -0.0107421  
C468     C      0.971810000000     0.508250000000     0.116810000000    -0.00624004 
C469     C      0.550310000000     0.018010000000     0.398950000000    -0.0201246  
C470     C      0.010340000000     0.472920000000     0.399800000000    -0.0080164  
C471     C      0.536630000000     0.029470000000     0.366830000000    -0.00526781 
C472     C      0.993870000000     0.486440000000     0.369850000000    -0.00623605 
C473     C      0.481280000000     0.372200000000     0.269020000000    -0.00851773 
C474     C      0.541750000000     0.372040000000     0.272020000000    -0.00838457 
C475     C      0.982900000000     0.398720000000     0.243820000000    -0.00776968 
C476     C      0.043160000000     0.398600000000     0.246810000000    -0.0083182  
C477     C      0.981920000000     0.149870000000     0.253280000000    -0.00806633 
C478     C      0.542500000000     0.149710000000     0.255000000000    -0.00827197 
C479     C      0.981180000000     0.119910000000     0.274220000000    -0.00813339 
C480     C      0.541540000000     0.119740000000     0.275900000000    -0.00806488 
C481     C      0.515550000000     0.504650000000     0.818110000000     0.474296   
C482     C      0.508780000000     0.515220000000     0.697150000000     0.473969   
C483     C      0.012810000000     0.449500000000     0.751360000000     0.473989   
C484     C      0.011530000000     0.069790000000     0.764650000000     0.47286    
C485     C      0.011260000000     0.258770000000     0.825480000000     0.476831   
C486     C      0.012400000000     0.261910000000     0.704180000000     0.477241   
C487     C      0.511550000000     0.321100000000     0.767150000000     0.474484   
C488     C      0.512120000000     0.200190000000     0.761770000000     0.474476   
C489     C      0.758980000000     0.001350000000     0.811160000000     0.452137   
C490     C      0.765530000000     0.000950000000     0.689960000000     0.452558   
C491     C      0.760920000000     0.062000000000     0.750050000000     0.468635   
C492     C      0.763680000000     0.440880000000     0.750580000000     0.471397   
C493     C      0.758130000000     0.251350000000     0.830690000000     0.472247   
C494     C      0.764820000000     0.252460000000     0.709050000000     0.471676   
C495     C      0.758980000000     0.191150000000     0.769550000000     0.47156    
C496     C      0.763880000000     0.312270000000     0.770940000000     0.472176   
C497     C      0.521320000000     0.504110000000     0.948760000000     0.47465    
C498     C      0.501390000000     0.522190000000     0.567380000000     0.47448    
C499     C      0.571570000000     0.011520000000     0.518060000000     0.455486   
C500     C      0.951250000000     0.015120000000     0.497550000000     0.455018   
C501     C      0.019440000000     0.247710000000     0.953820000000     0.47709    
C502     C      0.007950000000     0.262340000000     0.573720000000     0.47704    
C503     C      0.952890000000     0.258400000000     0.508740000000     0.472715   
C504     C      0.574350000000     0.251260000000     0.519450000000     0.473222   
C505     C      0.764480000000     0.515250000000     0.940820000000     0.473835   
C506     C      0.755470000000     0.516100000000     0.561880000000     0.474864   
C507     C      0.820810000000     0.017280000000     0.505880000000     0.454211   
C508     C      0.699070000000     0.013690000000     0.497580000000     0.454421   
C509     C      0.750190000000     0.247050000000     0.961140000000     0.472838   
C510     C      0.775070000000     0.261630000000     0.579510000000     0.472281   
C511     C      0.821840000000     0.258430000000     0.505800000000     0.473302   
C512     C      0.703370000000     0.250540000000     0.534220000000     0.474223   
C513     C      0.901010000000     0.230280000000     0.511920000000    -0.00748359 
C514     C      0.902710000000     0.290780000000     0.509240000000    -0.00976225 
C515     C      0.871860000000     0.230680000000     0.990030000000    -0.0067836  
C516     C      0.870520000000     0.290140000000     0.990700000000    -0.00835971 
C517     C      0.653590000000     0.218870000000     0.045120000000    -0.00863487 
C518     C      0.652370000000     0.278300000000     0.546500000000    -0.00680292 
C519     C      0.624490000000     0.218740000000     0.022060000000    -0.00989275 
C520     C      0.626560000000     0.279190000000     0.520690000000    -0.00745999 
C521     C      0.901200000000     0.045820000000     0.985850000000    -0.0099414  
C522     C      0.899700000000     0.486220000000     0.490380000000    -0.00765067 
C523     C      0.871960000000     0.048180000000     0.008380000000    -0.0106756  
C524     C      0.872120000000     0.488400000000     0.514410000000    -0.00822049 
C525     C      0.623010000000     0.040570000000     0.525240000000    -0.00834868 
C526     C      0.622800000000     0.480920000000     0.522260000000    -0.00888207 
C527     C      0.646810000000     0.042270000000     0.997390000000    -0.00914336 
C528     C      0.648190000000     0.482260000000     0.995370000000    -0.00889897 
C529     C      0.787850000000     0.230460000000     0.659260000000    -0.00815988 
C530     C      0.743760000000     0.272150000000     0.657390000000    -0.00732136 
C531     C      0.803230000000     0.245530000000     0.629390000000    -0.00683716 
C532     C      0.761700000000     0.289170000000     0.630120000000    -0.00815895 
C533     C      0.779510000000     0.233120000000     0.882600000000    -0.00685251 
C534     C      0.736150000000     0.275510000000     0.879790000000    -0.0082138  
C535     C      0.762070000000     0.217890000000     0.911130000000    -0.00787815 
C536     C      0.721800000000     0.262720000000     0.911250000000    -0.00713554 
C537     C      0.789880000000     0.020850000000     0.639880000000    -0.00910193 
C538     C      0.747520000000     0.477630000000     0.638740000000    -0.00668425 
C539     C      0.771390000000     0.039210000000     0.613910000000    -0.00830816 
C540     C      0.730600000000     0.494630000000     0.611050000000    -0.00659262 
C541     C      0.732710000000     0.019590000000     0.860900000000    -0.00894568 
C542     C      0.777200000000     0.478560000000     0.862540000000    -0.00714257 
C543     C      0.748860000000     0.037770000000     0.888450000000    -0.0080984  
C544     C      0.791330000000     0.494830000000     0.892240000000    -0.00734368 
C545     C      0.734180000000     0.389490000000     0.749240000000    -0.00812557 
C546     C      0.794650000000     0.390040000000     0.747890000000    -0.00913737 
C547     C      0.735070000000     0.363880000000     0.775240000000    -0.0079207  
C548     C      0.795400000000     0.362840000000     0.772680000000    -0.00875216 
C549     C      0.787200000000     0.139480000000     0.776330000000    -0.00813588 
C550     C      0.727380000000     0.140610000000     0.767800000000    -0.00900102 
C551     C      0.790510000000     0.113350000000     0.751040000000    -0.0082583  
C552     C      0.730490000000     0.112880000000     0.743770000000    -0.00916919 
C553     C      0.021280000000     0.291870000000     0.623030000000    -0.00703224 
C554     C      0.979700000000     0.248000000000     0.623570000000    -0.0066626  
C555     C      0.537080000000     0.277590000000     0.652950000000    -0.00644544 
C556     C      0.493260000000     0.235690000000     0.655310000000    -0.00709622 
C557     C      0.548160000000     0.262310000000     0.904290000000    -0.00567823 
C558     C      0.503220000000     0.221910000000     0.903220000000    -0.00760132 
C559     C      0.033060000000     0.279890000000     0.876000000000    -0.00681175 
C560     C      0.986690000000     0.240680000000     0.876200000000    -0.00666964 
C561     C      0.530700000000     0.034970000000     0.645930000000    -0.0054149  
C562     C      0.986040000000     0.493760000000     0.647390000000    -0.0076635  
C563     C      0.514130000000     0.051150000000     0.617310000000    -0.0107367  
C564     C      0.971810000000     0.508250000000     0.616810000000    -0.00623718 
C565     C      0.550310000000     0.018010000000     0.898950000000    -0.0201183  
C566     C      0.010340000000     0.472920000000     0.899800000000    -0.00803048 
C567     C      0.536630000000     0.029470000000     0.866830000000    -0.00527172 
C568     C      0.993870000000     0.486440000000     0.869850000000    -0.00622972 
C569     C      0.481280000000     0.372200000000     0.769020000000    -0.00850227 
C570     C      0.541750000000     0.372040000000     0.772020000000    -0.00838325 
C571     C      0.982900000000     0.398720000000     0.743810000000    -0.0078141  
C572     C      0.043160000000     0.398600000000     0.746810000000    -0.00831874 
C573     C      0.981920000000     0.149870000000     0.753280000000    -0.00806678 
C574     C      0.542500000000     0.149710000000     0.755000000000    -0.00827002 
C575     C      0.981180000000     0.119910000000     0.774220000000    -0.00813084 
C576     C      0.541540000000     0.119740000000     0.775900000000    -0.00806467 
C577     C      0.515550000000     0.004650000000     0.318110000000     0.472343   
C578     C      0.508780000000     0.015220000000     0.197150000000     0.471812   
C579     C      0.012810000000     0.949510000000     0.251360000000     0.471722   
C580     C      0.011530000000     0.569790000000     0.264640000000     0.474067   
C581     C      0.011260000000     0.758770000000     0.325480000000     0.476855   
C582     C      0.012400000000     0.761910000000     0.204180000000     0.477212   
C583     C      0.511550000000     0.821100000000     0.267150000000     0.474441   
C584     C      0.512120000000     0.700190000000     0.261770000000     0.474421   
C585     C      0.758980000000     0.501350000000     0.311160000000     0.474277   
C586     C      0.765530000000     0.500950000000     0.189960000000     0.474773   
C587     C      0.760920000000     0.562000000000     0.250050000000     0.471188   
C588     C      0.763680000000     0.940880000000     0.250580000000     0.467429   
C589     C      0.758130000000     0.751350000000     0.330690000000     0.472142   
C590     C      0.764820000000     0.752460000000     0.209050000000     0.471658   
C591     C      0.758980000000     0.691150000000     0.269550000000     0.471511   
C592     C      0.763880000000     0.812270000000     0.270940000000     0.472188   
C593     C      0.521320000000     0.004110000000     0.448760000000     0.443253   
C594     C      0.501390000000     0.022190000000     0.067380000000     0.45467    
C595     C      0.571570000000     0.511520000000     0.018060000000     0.473645   
C596     C      0.951250000000     0.515120000000     0.997560000000     0.473649   
C597     C      0.019440000000     0.747710000000     0.453810000000     0.477048   
C598     C      0.007950000000     0.762340000000     0.073720000000     0.477326   
C599     C      0.952890000000     0.758400000000     0.008740000000     0.472637   
C600     C      0.574350000000     0.751260000000     0.019450000000     0.47315    
C601     C      0.764480000000     0.015250000000     0.440820000000     0.456419   
C602     C      0.755470000000     0.016100000000     0.061880000000     0.45735    
C603     C      0.820810000000     0.517280000000     0.005880000000     0.472323   
C604     C      0.699070000000     0.513690000000     0.997580000000     0.472907   
C605     C      0.750190000000     0.747040000000     0.461130000000     0.472772   
C606     C      0.775070000000     0.761630000000     0.079510000000     0.47224    
C607     C      0.821840000000     0.758430000000     0.005800000000     0.473365   
C608     C      0.703370000000     0.750540000000     0.034230000000     0.473504   
C609     C      0.901010000000     0.730280000000     0.011920000000    -0.00783642 
C610     C      0.902710000000     0.790780000000     0.009240000000    -0.0102675  
C611     C      0.871860000000     0.730680000000     0.490030000000    -0.0070251  
C612     C      0.870520000000     0.790140000000     0.490700000000    -0.00870446 
C613     C      0.653590000000     0.718870000000     0.545120000000    -0.00876652 
C614     C      0.652370000000     0.778300000000     0.046500000000    -0.00673275 
C615     C      0.624490000000     0.718740000000     0.522060000000    -0.0096211  
C616     C      0.626560000000     0.779200000000     0.020690000000    -0.00791769 
C617     C      0.901200000000     0.545820000000     0.485850000000    -0.00883609 
C618     C      0.899700000000     0.986220000000     0.990380000000     0.00119873 
C619     C      0.871960000000     0.548180000000     0.508380000000    -0.00891893 
C620     C      0.872120000000     0.988400000000     0.014410000000     0.000235866
C621     C      0.623010000000     0.540570000000     0.025240000000    -0.00738707 
C622     C      0.622800000000     0.980920000000     0.022270000000    -0.000333788
C623     C      0.646810000000     0.542270000000     0.497390000000    -0.00808704 
C624     C      0.648190000000     0.982260000000     0.495370000000    -0.00047128 
C625     C      0.787850000000     0.730460000000     0.159260000000    -0.00822624 
C626     C      0.743760000000     0.772150000000     0.157390000000    -0.00733124 
C627     C      0.803230000000     0.745530000000     0.129380000000    -0.0068527  
C628     C      0.761700000000     0.789170000000     0.130120000000    -0.00823086 
C629     C      0.779510000000     0.733120000000     0.382600000000    -0.0069064  
C630     C      0.736150000000     0.775510000000     0.379790000000    -0.00829405 
C631     C      0.762070000000     0.717890000000     0.411130000000    -0.00787778 
C632     C      0.721800000000     0.762720000000     0.411250000000    -0.00711193 
C633     C      0.789880000000     0.520850000000     0.139880000000    -0.00758881 
C634     C      0.747520000000     0.977630000000     0.138740000000    -0.00338595 
C635     C      0.771390000000     0.539210000000     0.113910000000    -0.00755252 
C636     C      0.730600000000     0.994630000000     0.111050000000     0.0206121  
C637     C      0.732710000000     0.519590000000     0.360900000000    -0.00736555 
C638     C      0.777200000000     0.978560000000     0.362540000000    -0.00372703 
C639     C      0.748860000000     0.537770000000     0.388450000000    -0.00737116 
C640     C      0.791330000000     0.994830000000     0.392240000000     0.0198624  
C641     C      0.734180000000     0.889490000000     0.249240000000    -0.0083575  
C642     C      0.794650000000     0.890040000000     0.247890000000    -0.00942379 
C643     C      0.735070000000     0.863880000000     0.275240000000    -0.0078646  
C644     C      0.795400000000     0.862840000000     0.272680000000    -0.00864962 
C645     C      0.787200000000     0.639480000000     0.276330000000    -0.00819487 
C646     C      0.727380000000     0.640610000000     0.267800000000    -0.00909468 
C647     C      0.790510000000     0.613350000000     0.251050000000    -0.00813491 
C648     C      0.730490000000     0.612870000000     0.243760000000    -0.00908353 
C649     C      0.021280000000     0.791860000000     0.123030000000    -0.00697097 
C650     C      0.979700000000     0.748000000000     0.123570000000    -0.00664675 
C651     C      0.537080000000     0.777590000000     0.152950000000    -0.00650409 
C652     C      0.493260000000     0.735680000000     0.155310000000    -0.00723789 
C653     C      0.548160000000     0.762310000000     0.404290000000    -0.00560251 
C654     C      0.503220000000     0.721910000000     0.403230000000    -0.00756371 
C655     C      0.033060000000     0.779900000000     0.376000000000    -0.00701473 
C656     C      0.986690000000     0.740680000000     0.376200000000    -0.00674351 
C657     C      0.530700000000     0.534970000000     0.145930000000    -0.00698009 
C658     C      0.986040000000     0.993760000000     0.147390000000     0.0240673  
C659     C      0.514130000000     0.551150000000     0.117310000000    -0.00772886 
C660     C      0.971810000000     0.008250000000     0.116810000000    -0.0428227  
C661     C      0.550310000000     0.518010000000     0.398950000000    -0.00675428 
C662     C      0.010340000000     0.972920000000     0.399800000000    -0.0162408  
C663     C      0.536630000000     0.529470000000     0.366830000000    -0.00817358 
C664     C      0.993870000000     0.986440000000     0.369850000000     0.0249526  
C665     C      0.481280000000     0.872190000000     0.269020000000    -0.00845187 
C666     C      0.541750000000     0.872040000000     0.272020000000    -0.0083546  
C667     C      0.982900000000     0.898720000000     0.243820000000    -0.00791541 
C668     C      0.043160000000     0.898600000000     0.246810000000    -0.00844208 
C669     C      0.981920000000     0.649880000000     0.253280000000    -0.0080692  
C670     C      0.542500000000     0.649710000000     0.255000000000    -0.00831025 
C671     C      0.981180000000     0.619910000000     0.274220000000    -0.00815354 
C672     C      0.541540000000     0.619740000000     0.275900000000    -0.00806522 
C673     C      0.515550000000     0.004650000000     0.818110000000     0.472341   
C674     C      0.508780000000     0.015220000000     0.697150000000     0.47181    
C675     C      0.012810000000     0.949510000000     0.751360000000     0.471718   
C676     C      0.011530000000     0.569790000000     0.764650000000     0.474047   
C677     C      0.011260000000     0.758770000000     0.825480000000     0.476811   
C678     C      0.012400000000     0.761910000000     0.704180000000     0.477223   
C679     C      0.511550000000     0.821100000000     0.767150000000     0.474454   
C680     C      0.512120000000     0.700190000000     0.761770000000     0.474432   
C681     C      0.758980000000     0.501350000000     0.811160000000     0.474406   
C682     C      0.765530000000     0.500950000000     0.689960000000     0.474773   
C683     C      0.760920000000     0.562000000000     0.750050000000     0.471188   
C684     C      0.763680000000     0.940880000000     0.750580000000     0.467428   
C685     C      0.758130000000     0.751350000000     0.830690000000     0.472238   
C686     C      0.764820000000     0.752460000000     0.709050000000     0.471642   
C687     C      0.758980000000     0.691150000000     0.769550000000     0.471503   
C688     C      0.763880000000     0.812270000000     0.770940000000     0.472184   
C689     C      0.521320000000     0.004110000000     0.948760000000     0.443254   
C690     C      0.501390000000     0.022190000000     0.567380000000     0.454743   
C691     C      0.571570000000     0.511520000000     0.518060000000     0.473711   
C692     C      0.951250000000     0.515120000000     0.497550000000     0.473382   
C693     C      0.019440000000     0.747710000000     0.953820000000     0.477089   
C694     C      0.007950000000     0.762340000000     0.573720000000     0.477344   
C695     C      0.952890000000     0.758400000000     0.508740000000     0.472705   
C696     C      0.574350000000     0.751260000000     0.519450000000     0.473212   
C697     C      0.764480000000     0.015250000000     0.940820000000     0.456312   
C698     C      0.755470000000     0.016100000000     0.561880000000     0.457295   
C699     C      0.820810000000     0.517280000000     0.505880000000     0.472396   
C700     C      0.699070000000     0.513690000000     0.497580000000     0.472662   
C701     C      0.750190000000     0.747040000000     0.961140000000     0.472814   
C702     C      0.775070000000     0.761630000000     0.579510000000     0.472264   
C703     C      0.821840000000     0.758430000000     0.505800000000     0.47359    
C704     C      0.703370000000     0.750540000000     0.534220000000     0.473586   
C705     C      0.901010000000     0.730280000000     0.511920000000    -0.00759215 
C706     C      0.902710000000     0.790780000000     0.509240000000    -0.00974466 
C707     C      0.871860000000     0.730680000000     0.990030000000    -0.00678154 
C708     C      0.870520000000     0.790140000000     0.990700000000    -0.00839434 
C709     C      0.653590000000     0.718870000000     0.045120000000    -0.00868794 
C710     C      0.652370000000     0.778300000000     0.546500000000    -0.00681955 
C711     C      0.624490000000     0.718740000000     0.022060000000    -0.00992132 
C712     C      0.626560000000     0.779200000000     0.520690000000    -0.00761192 
C713     C      0.901200000000     0.545820000000     0.985850000000    -0.0085922  
C714     C      0.899700000000     0.986220000000     0.490380000000     0.000951813
C715     C      0.871960000000     0.548180000000     0.008380000000    -0.00916279 
C716     C      0.872120000000     0.988400000000     0.514410000000     0.000484966
C717     C      0.623010000000     0.540570000000     0.525240000000    -0.00714477 
C718     C      0.622800000000     0.980920000000     0.522260000000    -8.19518e-05
C719     C      0.646810000000     0.542270000000     0.997390000000    -0.00782558 
C720     C      0.648190000000     0.982260000000     0.995370000000    -0.000225799
C721     C      0.787850000000     0.730460000000     0.659260000000    -0.00821894 
C722     C      0.743760000000     0.772150000000     0.657390000000    -0.0073275  
C723     C      0.803230000000     0.745530000000     0.629390000000    -0.00687401 
C724     C      0.761700000000     0.789170000000     0.630120000000    -0.00823335 
C725     C      0.779510000000     0.733120000000     0.882600000000    -0.00689695 
C726     C      0.736150000000     0.775510000000     0.879790000000    -0.00828817 
C727     C      0.762070000000     0.717890000000     0.911130000000    -0.00790996 
C728     C      0.721800000000     0.762720000000     0.911250000000    -0.00713265 
C729     C      0.789880000000     0.520850000000     0.639880000000    -0.00758871 
C730     C      0.747520000000     0.977630000000     0.638740000000    -0.00338628 
C731     C      0.771390000000     0.539210000000     0.613910000000    -0.00755832 
C732     C      0.730600000000     0.994630000000     0.611050000000     0.0206075  
C733     C      0.732710000000     0.519590000000     0.860900000000    -0.00737672 
C734     C      0.777200000000     0.978560000000     0.862540000000    -0.00372924 
C735     C      0.748860000000     0.537770000000     0.888450000000    -0.00736646 
C736     C      0.791330000000     0.994830000000     0.892240000000     0.0198551  
C737     C      0.734180000000     0.889490000000     0.749240000000    -0.00835663 
C738     C      0.794650000000     0.890040000000     0.747890000000    -0.00942395 
C739     C      0.735070000000     0.863880000000     0.775240000000    -0.00786629 
C740     C      0.795400000000     0.862840000000     0.772680000000    -0.00864955 
C741     C      0.787200000000     0.639480000000     0.776330000000    -0.00818898 
C742     C      0.727380000000     0.640610000000     0.767800000000    -0.00908181 
C743     C      0.790510000000     0.613350000000     0.751040000000    -0.00815546 
C744     C      0.730490000000     0.612870000000     0.743770000000    -0.00904494 
C745     C      0.021280000000     0.791860000000     0.623030000000    -0.00697199 
C746     C      0.979700000000     0.748000000000     0.623570000000    -0.0066473  
C747     C      0.537080000000     0.777590000000     0.652950000000    -0.00650342 
C748     C      0.493260000000     0.735680000000     0.655310000000    -0.00723831 
C749     C      0.548160000000     0.762310000000     0.904290000000    -0.00563665 
C750     C      0.503220000000     0.721910000000     0.903220000000    -0.00762272 
C751     C      0.033060000000     0.779900000000     0.876000000000    -0.00699601 
C752     C      0.986690000000     0.740680000000     0.876200000000    -0.00672155 
C753     C      0.530700000000     0.534970000000     0.645930000000    -0.00698367 
C754     C      0.986040000000     0.993760000000     0.647390000000     0.0240658  
C755     C      0.514130000000     0.551150000000     0.617310000000    -0.0077233  
C756     C      0.971810000000     0.008250000000     0.616810000000    -0.0428211  
C757     C      0.550310000000     0.518010000000     0.898950000000    -0.0067483  
C758     C      0.010340000000     0.972920000000     0.899800000000    -0.0162562  
C759     C      0.536630000000     0.529470000000     0.866830000000    -0.00817759 
C760     C      0.993870000000     0.986440000000     0.869850000000     0.024959   
C761     C      0.481280000000     0.872190000000     0.769020000000    -0.00843639 
C762     C      0.541750000000     0.872040000000     0.772020000000    -0.00835333 
C763     C      0.982900000000     0.898720000000     0.743810000000    -0.00795997 
C764     C      0.043160000000     0.898600000000     0.746810000000    -0.00844258 
C765     C      0.981920000000     0.649880000000     0.753280000000    -0.00806966 
C766     C      0.542500000000     0.649710000000     0.755000000000    -0.0083083  
C767     C      0.981180000000     0.619910000000     0.774220000000    -0.00815098 
C768     C      0.541540000000     0.619740000000     0.775900000000    -0.00806502 
H1       H      0.397400000000     0.296210000000     0.034850000000     0.0348925  
H2       H      0.392680000000     0.228680000000     0.037280000000     0.0368723  
H3       H      0.357780000000     0.208400000000     0.493650000000     0.0377909  
H4       H      0.417730000000     0.310660000000     0.999800000000     0.0381148  
H5       H      0.355900000000     0.311260000000     0.997700000000     0.0376571  
H6       H      0.375990000000     0.292190000000     0.464620000000     0.0335962  
H7       H      0.415090000000     0.208350000000     0.506500000000     0.0385373  
H8       H      0.380410000000     0.230850000000     0.464680000000     0.0334096  
H9       H      0.140310000000     0.277690000000     0.070380000000     0.0334881  
H10      H      0.144300000000     0.216690000000     0.070100000000     0.0339955  
H11      H      0.108420000000     0.198500000000     0.528520000000     0.0382399  
H12      H      0.166940000000     0.300540000000     0.045390000000     0.0376575  
H13      H      0.112020000000     0.301210000000     0.024160000000     0.0383814  
H14      H      0.138440000000     0.280810000000     0.496770000000     0.0367872  
H15      H      0.168950000000     0.197700000000     0.540140000000     0.0376497  
H16      H      0.133600000000     0.214220000000     0.497350000000     0.0346076  
H17      H      0.389240000000     0.483590000000     0.465910000000     0.0340953  
H18      H      0.392250000000     0.045880000000     0.460660000000     0.0326604  
H19      H      0.356980000000     0.068910000000     0.500990000000     0.0382424  
H20      H      0.414020000000     0.464390000000     0.995490000000     0.0385142  
H21      H      0.357240000000     0.466430000000     0.012500000000     0.0385936  
H22      H      0.382490000000     0.489170000000     0.039050000000     0.0355178  
H23      H      0.416580000000     0.067300000000     0.489140000000     0.0379687  
H24      H      0.380960000000     0.052970000000     0.033090000000     0.032615   
H25      H      0.135580000000     0.478290000000     0.045600000000     0.0339472  
H26      H      0.136970000000     0.040200000000     0.048060000000     0.0324801  
H27      H      0.161620000000     0.064230000000     0.999850000000     0.0390602  
H28      H      0.107340000000     0.459530000000     0.518760000000     0.0371941  
H29      H      0.164130000000     0.461050000000     0.497360000000     0.0381259  
H30      H      0.135420000000     0.480750000000     0.471920000000     0.034796   
H31      H      0.107850000000     0.062440000000     0.025430000000     0.0384809  
H32      H      0.132910000000     0.044220000000     0.474620000000     0.0343835  
H33      H      0.225280000000     0.256070000000     0.146780000000     0.0380184  
H34      H      0.273040000000     0.209820000000     0.151230000000     0.0352999  
H35      H      0.313870000000     0.226550000000     0.113980000000     0.0355094  
H36      H      0.231290000000     0.290260000000     0.172520000000     0.0339342  
H37      H      0.244000000000     0.302200000000     0.114910000000     0.0351352  
H38      H      0.278650000000     0.306800000000     0.140790000000     0.0367538  
H39      H      0.307070000000     0.220840000000     0.175190000000     0.0358615  
H40      H      0.323290000000     0.261110000000     0.137610000000     0.0340392  
H41      H      0.251470000000     0.296470000000     0.385760000000     0.0345329  
H42      H      0.298610000000     0.249350000000     0.391810000000     0.0381055  
H43      H      0.279960000000     0.205060000000     0.426300000000     0.0350189  
H44      H      0.216410000000     0.284280000000     0.364000000000     0.0355756  
H45      H      0.212610000000     0.282940000000     0.425980000000     0.0355954  
H46      H      0.200800000000     0.247480000000     0.404960000000     0.0337719  
H47      H      0.291170000000     0.214030000000     0.368050000000     0.0334233  
H48      H      0.244290000000     0.200280000000     0.401870000000     0.0366764  
H49      H      0.263650000000     0.459140000000     0.128290000000     0.035001   
H50      H      0.308520000000     0.005810000000     0.128070000000     0.0330576  
H51      H      0.288730000000     0.053180000000     0.099130000000     0.0343785  
H52      H      0.229430000000     0.465110000000     0.153920000000     0.0355482  
H53      H      0.219820000000     0.476700000000     0.094490000000     0.035349   
H54      H      0.210540000000     0.508970000000     0.121300000000     0.0348738  
H55      H      0.302110000000     0.038150000000     0.156110000000     0.0345519  
H56      H      0.254520000000     0.056120000000     0.125810000000     0.0360464  
H57      H      0.261710000000     0.458530000000     0.370850000000     0.03455    
H58      H      0.214270000000     0.003210000000     0.371110000000     0.033596   
H59      H      0.230080000000     0.050440000000     0.402650000000     0.0351607  
H60      H      0.296970000000     0.468020000000     0.347920000000     0.0358785  
H61      H      0.301490000000     0.476490000000     0.408710000000     0.0360307  
H62      H      0.311610000000     0.510240000000     0.384230000000     0.034444   
H63      H      0.220460000000     0.036940000000     0.344730000000     0.0347696  
H64      H      0.265570000000     0.055830000000     0.378130000000     0.036632   
H65      H      0.296370000000     0.379270000000     0.223520000000     0.0347716  
H66      H      0.232140000000     0.377490000000     0.225480000000     0.0346486  
H67      H      0.212810000000     0.349250000000     0.273560000000     0.0383383  
H68      H      0.316210000000     0.405370000000     0.251420000000     0.0383319  
H69      H      0.316580000000     0.347360000000     0.267780000000     0.0376734  
H70      H      0.298640000000     0.373570000000     0.296920000000     0.0341142  
H71      H      0.212280000000     0.404350000000     0.252690000000     0.0382197  
H72      H      0.234920000000     0.375940000000     0.299060000000     0.0346015  
H73      H      0.221540000000     0.130410000000     0.291770000000     0.0342365  
H74      H      0.285080000000     0.127900000000     0.300300000000     0.0347096  
H75      H      0.311910000000     0.098530000000     0.256900000000     0.0376721  
H76      H      0.206930000000     0.156080000000     0.260400000000     0.0377726  
H77      H      0.208640000000     0.097650000000     0.245500000000     0.0377043  
H78      H      0.231200000000     0.123130000000     0.219120000000     0.0345194  
H79      H      0.309570000000     0.154040000000     0.276440000000     0.0385082  
H80      H      0.294930000000     0.124890000000     0.227370000000     0.0344794  
H81      H      0.459100000000     0.264040000000     0.129140000000     0.0344186  
H82      H      0.503850000000     0.310570000000     0.130640000000     0.036883   
H83      H      0.048330000000     0.297060000000     0.167310000000     0.0331271  
H84      H      0.470140000000     0.227660000000     0.109240000000     0.0356551  
H85      H      0.473210000000     0.226880000000     0.170690000000     0.0355051  
H86      H      0.009050000000     0.214890000000     0.149970000000     0.0346857  
H87      H      0.040130000000     0.303180000000     0.107800000000     0.0344014  
H88      H      0.056300000000     0.260710000000     0.145330000000     0.0376942  
H89      H      0.018540000000     0.203030000000     0.392280000000     0.0363882  
H90      H      0.066410000000     0.245430000000     0.394590000000     0.0347489  
H91      H      0.052360000000     0.289960000000     0.360470000000     0.035707   
H92      H      0.484610000000     0.210310000000     0.418540000000     0.03358    
H93      H      0.473280000000     0.223790000000     0.360460000000     0.034049   
H94      H      0.469170000000     0.257620000000     0.387070000000     0.0372997  
H95      H      0.060910000000     0.279580000000     0.420150000000     0.0343092  
H96      H      0.518940000000     0.300310000000     0.385690000000     0.0359952  
H97      H      0.500840000000     0.472750000000     0.140360000000     0.0355752  
H98      H      0.049590000000     0.518500000000     0.136740000000     0.0381319  
H99      H      0.032600000000     0.063160000000     0.102160000000     0.0345655  
H100     H      0.466200000000     0.484770000000     0.162920000000     0.0360771  
H101     H      0.461120000000     0.489070000000     0.101670000000     0.034845   
H102     H      0.451950000000     0.024570000000     0.124020000000     0.038257   
H103     H      0.042560000000     0.053490000000     0.161050000000     0.0327263  
H104     H      0.997150000000     0.069510000000     0.126580000000     0.0370322  
H105     H      0.028550000000     0.454960000000     0.392180000000     0.0365707  
H106     H      0.071430000000     0.002520000000     0.393770000000     0.0321164  
H107     H      0.056670000000     0.038080000000     0.351320000000     0.0346626  
H108     H      0.492010000000     0.460840000000     0.415050000000     0.035042   
H109     H      0.483290000000     0.466490000000     0.355660000000     0.032798   
H110     H      0.474020000000     0.502600000000     0.377450000000     0.0383631  
H111     H      0.059170000000     0.038820000000     0.413040000000     0.0378025  
H112     H      0.520760000000     0.050320000000     0.371640000000     0.0337093  
H113     H      0.042370000000     0.383300000000     0.296220000000     0.0345437  
H114     H      0.978250000000     0.383440000000     0.293040000000     0.0352182  
H115     H      0.460920000000     0.413740000000     0.245710000000     0.0383893  
H116     H      0.063630000000     0.356940000000     0.269670000000     0.0385543  
H117     H      0.064800000000     0.413580000000     0.251280000000     0.037518   
H118     H      0.545820000000     0.387370000000     0.222730000000     0.0345143  
H119     H      0.459730000000     0.357180000000     0.264290000000     0.0381882  
H120     H      0.482740000000     0.387380000000     0.219640000000     0.0342055  
H121     H      0.045370000000     0.142250000000     0.229510000000     0.034967   
H122     H      0.480530000000     0.142370000000     0.227680000000     0.0342193  
H123     H      0.459560000000     0.105580000000     0.267860000000     0.0373498  
H124     H      0.063980000000     0.164060000000     0.261740000000     0.0379582  
H125     H      0.063460000000     0.105300000000     0.271060000000     0.0383735  
H126     H      0.042420000000     0.127280000000     0.301520000000     0.0338988  
H127     H      0.460120000000     0.164330000000     0.258590000000     0.0382371  
H128     H      0.478810000000     0.127400000000     0.299760000000     0.0343507  
H129     H      0.397400000000     0.296210000000     0.534850000000     0.0348223  
H130     H      0.392680000000     0.228680000000     0.537280000000     0.0368463  
H131     H      0.357780000000     0.208400000000     0.993650000000     0.0378397  
H132     H      0.417730000000     0.310660000000     0.499800000000     0.0378271  
H133     H      0.355900000000     0.311260000000     0.497700000000     0.0376279  
H134     H      0.375990000000     0.292190000000     0.964620000000     0.0335665  
H135     H      0.415090000000     0.208350000000     0.006500000000     0.0385278  
H136     H      0.380410000000     0.230850000000     0.964680000000     0.0334073  
H137     H      0.140310000000     0.277690000000     0.570380000000     0.0335018  
H138     H      0.144300000000     0.216690000000     0.570100000000     0.0340087  
H139     H      0.108420000000     0.198500000000     0.028520000000     0.0382703  
H140     H      0.166940000000     0.300540000000     0.545390000000     0.0377073  
H141     H      0.112020000000     0.301210000000     0.524170000000     0.0383509  
H142     H      0.138440000000     0.280810000000     0.996770000000     0.0370249  
H143     H      0.168950000000     0.197700000000     0.040140000000     0.0375944  
H144     H      0.133600000000     0.214220000000     0.997350000000     0.0348424  
H145     H      0.389240000000     0.483590000000     0.965910000000     0.0340994  
H146     H      0.392250000000     0.045880000000     0.960660000000     0.0326597  
H147     H      0.356980000000     0.068910000000     0.000990000000     0.0382326  
H148     H      0.414020000000     0.464390000000     0.495490000000     0.0384723  
H149     H      0.357240000000     0.466430000000     0.512500000000     0.0385953  
H150     H      0.382490000000     0.489170000000     0.539050000000     0.0355062  
H151     H      0.416580000000     0.067300000000     0.989140000000     0.0379821  
H152     H      0.380960000000     0.052970000000     0.533090000000     0.0326075  
H153     H      0.135580000000     0.478290000000     0.545600000000     0.0339203  
H154     H      0.136970000000     0.040200000000     0.548060000000     0.0324575  
H155     H      0.161620000000     0.064230000000     0.499850000000     0.0390187  
H156     H      0.107340000000     0.459530000000     0.018750000000     0.037195   
H157     H      0.164130000000     0.461050000000     0.997360000000     0.0381424  
H158     H      0.135420000000     0.480750000000     0.971920000000     0.0347835  
H159     H      0.107850000000     0.062440000000     0.525430000000     0.0384753  
H160     H      0.132910000000     0.044220000000     0.974620000000     0.0343739  
H161     H      0.225280000000     0.256070000000     0.646780000000     0.0380176  
H162     H      0.273040000000     0.209820000000     0.651230000000     0.0352994  
H163     H      0.313870000000     0.226550000000     0.613980000000     0.0355197  
H164     H      0.231290000000     0.290260000000     0.672520000000     0.0339382  
H165     H      0.244000000000     0.302200000000     0.614910000000     0.0351397  
H166     H      0.278650000000     0.306800000000     0.640790000000     0.0367573  
H167     H      0.307070000000     0.220840000000     0.675190000000     0.0358548  
H168     H      0.323290000000     0.261110000000     0.637610000000     0.0340473  
H169     H      0.251470000000     0.296470000000     0.885760000000     0.034545   
H170     H      0.298610000000     0.249350000000     0.891810000000     0.038118   
H171     H      0.279960000000     0.205060000000     0.926300000000     0.0350563  
H172     H      0.216410000000     0.284280000000     0.864000000000     0.035577   
H173     H      0.212610000000     0.282940000000     0.925980000000     0.0356292  
H174     H      0.200800000000     0.247480000000     0.904960000000     0.0337886  
H175     H      0.291170000000     0.214030000000     0.868050000000     0.0334301  
H176     H      0.244290000000     0.200280000000     0.901880000000     0.0366994  
H177     H      0.263650000000     0.459140000000     0.628290000000     0.0350027  
H178     H      0.308520000000     0.005810000000     0.628070000000     0.0330584  
H179     H      0.288730000000     0.053180000000     0.599130000000     0.0343816  
H180     H      0.229430000000     0.465110000000     0.653920000000     0.0355493  
H181     H      0.219820000000     0.476700000000     0.594490000000     0.0353622  
H182     H      0.210540000000     0.508970000000     0.621300000000     0.0348804  
H183     H      0.302110000000     0.038150000000     0.656110000000     0.0345522  
H184     H      0.254520000000     0.056120000000     0.625810000000     0.0360501  
H185     H      0.261710000000     0.458530000000     0.870850000000     0.0345604  
H186     H      0.214270000000     0.003210000000     0.871100000000     0.03361    
H187     H      0.230080000000     0.050440000000     0.902660000000     0.0351767  
H188     H      0.296970000000     0.468020000000     0.847920000000     0.0358865  
H189     H      0.301490000000     0.476490000000     0.908710000000     0.0360593  
H190     H      0.311610000000     0.510240000000     0.884230000000     0.0344606  
H191     H      0.220460000000     0.036940000000     0.844730000000     0.034778   
H192     H      0.265570000000     0.055830000000     0.878130000000     0.0366407  
H193     H      0.296370000000     0.379270000000     0.723520000000     0.0347728  
H194     H      0.232140000000     0.377490000000     0.725480000000     0.034651   
H195     H      0.212810000000     0.349250000000     0.773560000000     0.038337   
H196     H      0.316210000000     0.405370000000     0.751420000000     0.0383321  
H197     H      0.316580000000     0.347360000000     0.767780000000     0.0376745  
H198     H      0.298640000000     0.373570000000     0.796920000000     0.0341162  
H199     H      0.212280000000     0.404350000000     0.752690000000     0.0382193  
H200     H      0.234920000000     0.375940000000     0.799060000000     0.034602   
H201     H      0.221540000000     0.130410000000     0.791780000000     0.0342239  
H202     H      0.285080000000     0.127900000000     0.800300000000     0.0347094  
H203     H      0.311910000000     0.098530000000     0.756900000000     0.0376777  
H204     H      0.206930000000     0.156080000000     0.760400000000     0.0377705  
H205     H      0.208640000000     0.097650000000     0.745500000000     0.037692   
H206     H      0.231200000000     0.123130000000     0.719120000000     0.0345065  
H207     H      0.309570000000     0.154040000000     0.776440000000     0.0385077  
H208     H      0.294930000000     0.124890000000     0.727370000000     0.0344875  
H209     H      0.459100000000     0.264040000000     0.629140000000     0.0344206  
H210     H      0.503850000000     0.310570000000     0.630640000000     0.0368864  
H211     H      0.048330000000     0.297060000000     0.667310000000     0.0331256  
H212     H      0.470140000000     0.227660000000     0.609240000000     0.0356576  
H213     H      0.473210000000     0.226880000000     0.670690000000     0.0355044  
H214     H      0.009050000000     0.214890000000     0.649970000000     0.0346852  
H215     H      0.040130000000     0.303180000000     0.607800000000     0.0344039  
H216     H      0.056300000000     0.260710000000     0.645330000000     0.0376915  
H217     H      0.018540000000     0.203030000000     0.892280000000     0.0364158  
H218     H      0.066410000000     0.245430000000     0.894600000000     0.0347676  
H219     H      0.052360000000     0.289960000000     0.860460000000     0.0357059  
H220     H      0.484610000000     0.210310000000     0.918530000000     0.033625   
H221     H      0.473280000000     0.223790000000     0.860460000000     0.0340497  
H222     H      0.469170000000     0.257620000000     0.887070000000     0.0373111  
H223     H      0.060910000000     0.279580000000     0.920150000000     0.0343469  
H224     H      0.518940000000     0.300310000000     0.885690000000     0.0360062  
H225     H      0.500840000000     0.472750000000     0.640360000000     0.0355774  
H226     H      0.049590000000     0.518500000000     0.636740000000     0.0381311  
H227     H      0.032600000000     0.063160000000     0.602160000000     0.0345681  
H228     H      0.466200000000     0.484770000000     0.662920000000     0.0360783  
H229     H      0.461120000000     0.489070000000     0.601670000000     0.0348574  
H230     H      0.451950000000     0.024570000000     0.624020000000     0.0382637  
H231     H      0.042560000000     0.053490000000     0.661050000000     0.032727   
H232     H      0.997150000000     0.069510000000     0.626580000000     0.0370359  
H233     H      0.028550000000     0.454960000000     0.892190000000     0.0365899  
H234     H      0.071430000000     0.002520000000     0.893760000000     0.0321254  
H235     H      0.056670000000     0.038080000000     0.851320000000     0.0346642  
H236     H      0.492010000000     0.460840000000     0.915050000000     0.0350672  
H237     H      0.483290000000     0.466490000000     0.855660000000     0.0328022  
H238     H      0.474020000000     0.502600000000     0.877450000000     0.0383706  
H239     H      0.059170000000     0.038820000000     0.913040000000     0.0378249  
H240     H      0.520760000000     0.050320000000     0.871640000000     0.0337177  
H241     H      0.042370000000     0.383300000000     0.796220000000     0.0345445  
H242     H      0.978250000000     0.383440000000     0.793040000000     0.0352179  
H243     H      0.460920000000     0.413740000000     0.745710000000     0.0384024  
H244     H      0.063630000000     0.356940000000     0.769680000000     0.0385528  
H245     H      0.064800000000     0.413580000000     0.751280000000     0.0375177  
H246     H      0.545820000000     0.387370000000     0.722730000000     0.0345148  
H247     H      0.459730000000     0.357180000000     0.764290000000     0.0381851  
H248     H      0.482740000000     0.387380000000     0.719640000000     0.0342201  
H249     H      0.045370000000     0.142250000000     0.729510000000     0.0349668  
H250     H      0.480530000000     0.142370000000     0.727680000000     0.034219   
H251     H      0.459560000000     0.105580000000     0.767860000000     0.0373498  
H252     H      0.063980000000     0.164060000000     0.761740000000     0.0379571  
H253     H      0.063460000000     0.105300000000     0.771060000000     0.038372   
H254     H      0.042420000000     0.127280000000     0.801520000000     0.0338991  
H255     H      0.460120000000     0.164330000000     0.758590000000     0.0382366  
H256     H      0.478810000000     0.127400000000     0.799760000000     0.0343533  
H257     H      0.397400000000     0.796210000000     0.034850000000     0.0349817  
H258     H      0.392680000000     0.728680000000     0.037280000000     0.0368566  
H259     H      0.357780000000     0.708400000000     0.493650000000     0.0377298  
H260     H      0.417730000000     0.810660000000     0.999800000000     0.0382416  
H261     H      0.355900000000     0.811260000000     0.997700000000     0.0378048  
H262     H      0.375990000000     0.792200000000     0.464620000000     0.0336768  
H263     H      0.415090000000     0.708350000000     0.506500000000     0.0385029  
H264     H      0.380410000000     0.730850000000     0.464680000000     0.0333729  
H265     H      0.140310000000     0.777690000000     0.070380000000     0.0335624  
H266     H      0.144300000000     0.716680000000     0.070100000000     0.0339659  
H267     H      0.108420000000     0.698500000000     0.528520000000     0.0381762  
H268     H      0.166940000000     0.800540000000     0.045390000000     0.0378295  
H269     H      0.112020000000     0.801210000000     0.024160000000     0.0385836  
H270     H      0.138440000000     0.780810000000     0.496770000000     0.0368941  
H271     H      0.168950000000     0.697700000000     0.540140000000     0.0376074  
H272     H      0.133600000000     0.714220000000     0.497350000000     0.0345459  
H273     H      0.389240000000     0.983590000000     0.465910000000     0.0368812  
H274     H      0.392250000000     0.545880000000     0.460660000000     0.0345408  
H275     H      0.356980000000     0.568910000000     0.500990000000     0.0379493  
H276     H      0.414020000000     0.964390000000     0.995490000000     0.0380568  
H277     H      0.357240000000     0.966430000000     0.012500000000     0.0382972  
H278     H      0.382490000000     0.989170000000     0.039050000000     0.0385181  
H279     H      0.416580000000     0.567300000000     0.489140000000     0.0377302  
H280     H      0.380960000000     0.552970000000     0.033090000000     0.0340576  
H281     H      0.135580000000     0.978280000000     0.045600000000     0.0365164  
H282     H      0.136970000000     0.540200000000     0.048060000000     0.0345173  
H283     H      0.161620000000     0.564230000000     0.999850000000     0.0387368  
H284     H      0.107340000000     0.959530000000     0.518760000000     0.0370051  
H285     H      0.164130000000     0.961040000000     0.497360000000     0.037906   
H286     H      0.135420000000     0.980750000000     0.471920000000     0.0379688  
H287     H      0.107850000000     0.562440000000     0.025430000000     0.0382434  
H288     H      0.132910000000     0.544230000000     0.474620000000     0.0358243  
H289     H      0.225280000000     0.756070000000     0.146780000000     0.0380044  
H290     H      0.273040000000     0.709830000000     0.151230000000     0.0352874  
H291     H      0.313870000000     0.726550000000     0.113980000000     0.035484   
H292     H      0.231290000000     0.790260000000     0.172520000000     0.0340552  
H293     H      0.244000000000     0.802200000000     0.114910000000     0.0353166  
H294     H      0.278650000000     0.806800000000     0.140790000000     0.037004   
H295     H      0.307070000000     0.720840000000     0.175190000000     0.0358606  
H296     H      0.323290000000     0.761110000000     0.137610000000     0.0341022  
H297     H      0.251470000000     0.796470000000     0.385760000000     0.0347369  
H298     H      0.298610000000     0.749350000000     0.391810000000     0.0381259  
H299     H      0.279960000000     0.705060000000     0.426300000000     0.0349644  
H300     H      0.216410000000     0.784280000000     0.364000000000     0.0357418  
H301     H      0.212610000000     0.782940000000     0.425980000000     0.0357178  
H302     H      0.200800000000     0.747480000000     0.404960000000     0.033748   
H303     H      0.291170000000     0.714030000000     0.368050000000     0.0334008  
H304     H      0.244290000000     0.700280000000     0.401870000000     0.0366199  
H305     H      0.263650000000     0.959150000000     0.128290000000     0.0374067  
H306     H      0.308520000000     0.505810000000     0.128070000000     0.0369135  
H307     H      0.288730000000     0.553180000000     0.099130000000     0.0346536  
H308     H      0.229430000000     0.965110000000     0.153920000000     0.038093   
H309     H      0.219820000000     0.976700000000     0.094490000000     0.0326894  
H310     H      0.210540000000     0.008970000000     0.121300000000     0.0199019  
H311     H      0.302110000000     0.538150000000     0.156110000000     0.0347676  
H312     H      0.254520000000     0.556120000000     0.125810000000     0.0365559  
H313     H      0.261710000000     0.958530000000     0.370850000000     0.0369971  
H314     H      0.214270000000     0.503210000000     0.371110000000     0.0372076  
H315     H      0.230080000000     0.550440000000     0.402650000000     0.0354061  
H316     H      0.296970000000     0.968020000000     0.347920000000     0.0385401  
H317     H      0.301490000000     0.976490000000     0.408710000000     0.0333031  
H318     H      0.311610000000     0.010240000000     0.384230000000     0.019477   
H319     H      0.220460000000     0.536940000000     0.344730000000     0.0348303  
H320     H      0.265570000000     0.555830000000     0.378130000000     0.0371484  
H321     H      0.296370000000     0.879270000000     0.223520000000     0.0355482  
H322     H      0.232140000000     0.877490000000     0.225480000000     0.035249   
H323     H      0.212810000000     0.849250000000     0.273560000000     0.038738   
H324     H      0.316210000000     0.905370000000     0.251420000000     0.0397411  
H325     H      0.316580000000     0.847360000000     0.267780000000     0.0379544  
H326     H      0.298640000000     0.873570000000     0.296920000000     0.0347205  
H327     H      0.212280000000     0.904350000000     0.252690000000     0.0397004  
H328     H      0.234920000000     0.875940000000     0.299060000000     0.0354935  
H329     H      0.221540000000     0.630410000000     0.291770000000     0.0343106  
H330     H      0.285080000000     0.627890000000     0.300300000000     0.034887   
H331     H      0.311910000000     0.598530000000     0.256900000000     0.0381435  
H332     H      0.206930000000     0.656080000000     0.260400000000     0.0378051  
H333     H      0.208640000000     0.597650000000     0.245500000000     0.0380982  
H334     H      0.231200000000     0.623130000000     0.219120000000     0.0346284  
H335     H      0.309570000000     0.654040000000     0.276440000000     0.0385887  
H336     H      0.294930000000     0.624890000000     0.227370000000     0.034536   
H337     H      0.459100000000     0.764040000000     0.129140000000     0.034461   
H338     H      0.503850000000     0.810570000000     0.130640000000     0.0370961  
H339     H      0.048330000000     0.797060000000     0.167310000000     0.0333165  
H340     H      0.470140000000     0.727660000000     0.109240000000     0.0356088  
H341     H      0.473210000000     0.726880000000     0.170690000000     0.0355267  
H342     H      0.009050000000     0.714890000000     0.149970000000     0.0346788  
H343     H      0.040130000000     0.803180000000     0.107800000000     0.034555   
H344     H      0.056300000000     0.760710000000     0.145330000000     0.0376978  
H345     H      0.018540000000     0.703030000000     0.392280000000     0.0363388  
H346     H      0.066410000000     0.745430000000     0.394590000000     0.0347111  
H347     H      0.052360000000     0.789960000000     0.360470000000     0.0359198  
H348     H      0.484610000000     0.710310000000     0.418540000000     0.0335366  
H349     H      0.473280000000     0.723790000000     0.360460000000     0.0340358  
H350     H      0.469170000000     0.757620000000     0.387070000000     0.0373377  
H351     H      0.060910000000     0.779580000000     0.420150000000     0.0343963  
H352     H      0.518940000000     0.800310000000     0.385690000000     0.0362336  
H353     H      0.500840000000     0.972750000000     0.140360000000     0.0326202  
H354     H      0.049590000000     0.018500000000     0.136740000000     0.0343097  
H355     H      0.032600000000     0.563160000000     0.102160000000     0.0341796  
H356     H      0.466200000000     0.984770000000     0.162920000000     0.0344593  
H357     H      0.461120000000     0.989070000000     0.101670000000     0.0516013  
H358     H      0.451950000000     0.524570000000     0.124020000000     0.0337238  
H359     H      0.042560000000     0.553490000000     0.161050000000     0.0334418  
H360     H      0.997150000000     0.569510000000     0.126580000000     0.0364394  
H361     H      0.028550000000     0.954960000000     0.392180000000     0.0410985  
H362     H      0.071430000000     0.502520000000     0.393770000000     0.0337576  
H363     H      0.056670000000     0.538080000000     0.351320000000     0.0359195  
H364     H      0.492010000000     0.960830000000     0.415050000000     0.0394534  
H365     H      0.483290000000     0.966490000000     0.355660000000     0.0302246  
H366     H      0.474020000000     0.002610000000     0.377450000000     0.0225555  
H367     H      0.059170000000     0.538820000000     0.413040000000     0.0357604  
H368     H      0.520760000000     0.550330000000     0.371640000000     0.035018   
H369     H      0.042370000000     0.883300000000     0.296220000000     0.0355307  
H370     H      0.978250000000     0.883440000000     0.293040000000     0.0360885  
H371     H      0.460920000000     0.913750000000     0.245710000000     0.0399661  
H372     H      0.063630000000     0.856940000000     0.269670000000     0.0390021  
H373     H      0.064800000000     0.913580000000     0.251280000000     0.0393186  
H374     H      0.545820000000     0.887370000000     0.222730000000     0.035342   
H375     H      0.459730000000     0.857180000000     0.264290000000     0.0385625  
H376     H      0.482740000000     0.887380000000     0.219640000000     0.0349214  
H377     H      0.045370000000     0.642250000000     0.229510000000     0.0350027  
H378     H      0.480530000000     0.642370000000     0.227680000000     0.034274   
H379     H      0.459560000000     0.605580000000     0.267860000000     0.0377022  
H380     H      0.063980000000     0.664060000000     0.261740000000     0.0379607  
H381     H      0.063460000000     0.605300000000     0.271060000000     0.0385762  
H382     H      0.042420000000     0.627280000000     0.301520000000     0.0339045  
H383     H      0.460120000000     0.664340000000     0.258590000000     0.0382737  
H384     H      0.478810000000     0.627400000000     0.299760000000     0.0344505  
H385     H      0.397400000000     0.796210000000     0.534850000000     0.0349115  
H386     H      0.392680000000     0.728680000000     0.537280000000     0.0368306  
H387     H      0.357780000000     0.708400000000     0.993650000000     0.0377786  
H388     H      0.417730000000     0.810660000000     0.499800000000     0.0379541  
H389     H      0.355900000000     0.811260000000     0.497700000000     0.0377757  
H390     H      0.375990000000     0.792200000000     0.964620000000     0.033647   
H391     H      0.415090000000     0.708350000000     0.006500000000     0.0384933  
H392     H      0.380410000000     0.730850000000     0.964680000000     0.0333706  
H393     H      0.140310000000     0.777690000000     0.570380000000     0.0335761  
H394     H      0.144300000000     0.716680000000     0.570100000000     0.0339791  
H395     H      0.108420000000     0.698500000000     0.028520000000     0.0382066  
H396     H      0.166940000000     0.800540000000     0.545390000000     0.0378793  
H397     H      0.112020000000     0.801210000000     0.524170000000     0.038553   
H398     H      0.138440000000     0.780810000000     0.996770000000     0.0371317  
H399     H      0.168950000000     0.697700000000     0.040140000000     0.037552   
H400     H      0.133600000000     0.714220000000     0.997350000000     0.0347809  
H401     H      0.389240000000     0.983590000000     0.965910000000     0.0368851  
H402     H      0.392250000000     0.545880000000     0.960660000000     0.0345401  
H403     H      0.356980000000     0.568910000000     0.000990000000     0.0379394  
H404     H      0.414020000000     0.964390000000     0.495490000000     0.0380151  
H405     H      0.357240000000     0.966430000000     0.512500000000     0.038299   
H406     H      0.382490000000     0.989170000000     0.539050000000     0.0385066  
H407     H      0.416580000000     0.567300000000     0.989140000000     0.0377437  
H408     H      0.380960000000     0.552970000000     0.533090000000     0.0340503  
H409     H      0.135580000000     0.978280000000     0.545600000000     0.0364921  
H410     H      0.136970000000     0.540200000000     0.548060000000     0.0344947  
H411     H      0.161620000000     0.564230000000     0.499850000000     0.0386951  
H412     H      0.107340000000     0.959530000000     0.018750000000     0.0370058  
H413     H      0.164130000000     0.961040000000     0.997360000000     0.0379221  
H414     H      0.135420000000     0.980750000000     0.971920000000     0.0379558  
H415     H      0.107850000000     0.562440000000     0.525430000000     0.0382377  
H416     H      0.132910000000     0.544230000000     0.974620000000     0.0358148  
H417     H      0.225280000000     0.756070000000     0.646780000000     0.0380035  
H418     H      0.273040000000     0.709830000000     0.651230000000     0.035287   
H419     H      0.313870000000     0.726550000000     0.613980000000     0.0354943  
H420     H      0.231290000000     0.790260000000     0.672520000000     0.0340592  
H421     H      0.244000000000     0.802200000000     0.614910000000     0.0353211  
H422     H      0.278650000000     0.806800000000     0.640790000000     0.0370075  
H423     H      0.307070000000     0.720840000000     0.675190000000     0.0358539  
H424     H      0.323290000000     0.761110000000     0.637610000000     0.0341103  
H425     H      0.251470000000     0.796470000000     0.885760000000     0.034749   
H426     H      0.298610000000     0.749350000000     0.891810000000     0.0381384  
H427     H      0.279960000000     0.705060000000     0.926300000000     0.0350018  
H428     H      0.216410000000     0.784280000000     0.864000000000     0.0357432  
H429     H      0.212610000000     0.782940000000     0.925980000000     0.0357516  
H430     H      0.200800000000     0.747480000000     0.904960000000     0.0337647  
H431     H      0.291170000000     0.714030000000     0.868050000000     0.0334076  
H432     H      0.244290000000     0.700280000000     0.901880000000     0.036643   
H433     H      0.263650000000     0.959150000000     0.628290000000     0.0374087  
H434     H      0.308520000000     0.505810000000     0.628070000000     0.0369145  
H435     H      0.288730000000     0.553180000000     0.599130000000     0.0346568  
H436     H      0.229430000000     0.965110000000     0.653920000000     0.0380942  
H437     H      0.219820000000     0.976700000000     0.594490000000     0.0327028  
H438     H      0.210540000000     0.008970000000     0.621300000000     0.0199078  
H439     H      0.302110000000     0.538150000000     0.656110000000     0.0347679  
H440     H      0.254520000000     0.556120000000     0.625810000000     0.0365596  
H441     H      0.261710000000     0.958530000000     0.870850000000     0.0370079  
H442     H      0.214270000000     0.503210000000     0.871100000000     0.0372209  
H443     H      0.230080000000     0.550440000000     0.902660000000     0.0354224  
H444     H      0.296970000000     0.968020000000     0.847920000000     0.0385487  
H445     H      0.301490000000     0.976490000000     0.908710000000     0.0333313  
H446     H      0.311610000000     0.010240000000     0.884230000000     0.0194935  
H447     H      0.220460000000     0.536940000000     0.844730000000     0.0348382  
H448     H      0.265570000000     0.555830000000     0.878130000000     0.0371574  
H449     H      0.296370000000     0.879270000000     0.723520000000     0.0355495  
H450     H      0.232140000000     0.877490000000     0.725480000000     0.0352514  
H451     H      0.212810000000     0.849250000000     0.773560000000     0.0387367  
H452     H      0.316210000000     0.905370000000     0.751420000000     0.0397412  
H453     H      0.316580000000     0.847360000000     0.767780000000     0.0379556  
H454     H      0.298640000000     0.873570000000     0.796920000000     0.0347225  
H455     H      0.212280000000     0.904350000000     0.752690000000     0.0397     
H456     H      0.234920000000     0.875940000000     0.799060000000     0.0354939  
H457     H      0.221540000000     0.630410000000     0.791780000000     0.0342979  
H458     H      0.285080000000     0.627890000000     0.800300000000     0.0348868  
H459     H      0.311910000000     0.598530000000     0.756900000000     0.0381491  
H460     H      0.206930000000     0.656080000000     0.760400000000     0.037803   
H461     H      0.208640000000     0.597650000000     0.745500000000     0.038086   
H462     H      0.231200000000     0.623130000000     0.719120000000     0.0346156  
H463     H      0.309570000000     0.654040000000     0.776440000000     0.0385882  
H464     H      0.294930000000     0.624890000000     0.727370000000     0.0345441  
H465     H      0.459100000000     0.764040000000     0.629140000000     0.0344629  
H466     H      0.503850000000     0.810570000000     0.630640000000     0.0370995  
H467     H      0.048330000000     0.797060000000     0.667310000000     0.033315   
H468     H      0.470140000000     0.727660000000     0.609240000000     0.0356113  
H469     H      0.473210000000     0.726880000000     0.670690000000     0.0355259  
H470     H      0.009050000000     0.714890000000     0.649970000000     0.0346783  
H471     H      0.040130000000     0.803180000000     0.607800000000     0.0345575  
H472     H      0.056300000000     0.760710000000     0.645330000000     0.0376951  
H473     H      0.018540000000     0.703030000000     0.892280000000     0.0363664  
H474     H      0.066410000000     0.745430000000     0.894600000000     0.0347297  
H475     H      0.052360000000     0.789960000000     0.860460000000     0.0359187  
H476     H      0.484610000000     0.710310000000     0.918530000000     0.0335816  
H477     H      0.473280000000     0.723790000000     0.860460000000     0.0340366  
H478     H      0.469170000000     0.757620000000     0.887070000000     0.0373491  
H479     H      0.060910000000     0.779580000000     0.920150000000     0.034434   
H480     H      0.518940000000     0.800310000000     0.885690000000     0.0362446  
H481     H      0.500840000000     0.972750000000     0.640360000000     0.0326223  
H482     H      0.049590000000     0.018500000000     0.636740000000     0.0343088  
H483     H      0.032600000000     0.563160000000     0.602160000000     0.0341822  
H484     H      0.466200000000     0.984770000000     0.662920000000     0.0344603  
H485     H      0.461120000000     0.989070000000     0.601670000000     0.0516142  
H486     H      0.451950000000     0.524570000000     0.624020000000     0.0337303  
H487     H      0.042560000000     0.553490000000     0.661050000000     0.0334425  
H488     H      0.997150000000     0.569510000000     0.626580000000     0.0364431  
H489     H      0.028550000000     0.954960000000     0.892190000000     0.0411182  
H490     H      0.071430000000     0.502520000000     0.893760000000     0.0337668  
H491     H      0.056670000000     0.538080000000     0.851320000000     0.035921   
H492     H      0.492010000000     0.960830000000     0.915050000000     0.0394785  
H493     H      0.483290000000     0.966490000000     0.855660000000     0.0302287  
H494     H      0.474020000000     0.002610000000     0.877450000000     0.0225631  
H495     H      0.059170000000     0.538820000000     0.913040000000     0.0357829  
H496     H      0.520760000000     0.550330000000     0.871640000000     0.0350265  
H497     H      0.042370000000     0.883300000000     0.796220000000     0.0355315  
H498     H      0.978250000000     0.883440000000     0.793040000000     0.0360882  
H499     H      0.460920000000     0.913750000000     0.745710000000     0.0399792  
H500     H      0.063630000000     0.856940000000     0.769680000000     0.0390006  
H501     H      0.064800000000     0.913580000000     0.751280000000     0.0393183  
H502     H      0.545820000000     0.887370000000     0.722730000000     0.0353426  
H503     H      0.459730000000     0.857180000000     0.764290000000     0.0385594  
H504     H      0.482740000000     0.887380000000     0.719640000000     0.0349361  
H505     H      0.045370000000     0.642250000000     0.729510000000     0.0350026  
H506     H      0.480530000000     0.642370000000     0.727680000000     0.0342736  
H507     H      0.459560000000     0.605580000000     0.767860000000     0.0377022  
H508     H      0.063980000000     0.664060000000     0.761740000000     0.0379595  
H509     H      0.063460000000     0.605300000000     0.771060000000     0.0385748  
H510     H      0.042420000000     0.627280000000     0.801520000000     0.0339047  
H511     H      0.460120000000     0.664340000000     0.758590000000     0.0382732  
H512     H      0.478810000000     0.627400000000     0.799760000000     0.034453   
H513     H      0.897400000000     0.296210000000     0.034850000000     0.03491    
H514     H      0.892680000000     0.228680000000     0.037280000000     0.0368929  
H515     H      0.857780000000     0.208400000000     0.493650000000     0.0377909  
H516     H      0.917720000000     0.310660000000     0.999800000000     0.0381412  
H517     H      0.855900000000     0.311260000000     0.997700000000     0.0376612  
H518     H      0.875980000000     0.292190000000     0.464620000000     0.033609   
H519     H      0.915080000000     0.208350000000     0.506500000000     0.0385663  
H520     H      0.880410000000     0.230850000000     0.464680000000     0.0334165  
H521     H      0.640310000000     0.277690000000     0.070380000000     0.0334903  
H522     H      0.644300000000     0.216690000000     0.070100000000     0.0339878  
H523     H      0.608420000000     0.198500000000     0.528520000000     0.0382495  
H524     H      0.666940000000     0.300540000000     0.045390000000     0.0376603  
H525     H      0.612020000000     0.301210000000     0.024160000000     0.0383742  
H526     H      0.638440000000     0.280810000000     0.496770000000     0.0367764  
H527     H      0.668950000000     0.197700000000     0.540140000000     0.0376432  
H528     H      0.633600000000     0.214220000000     0.497350000000     0.0346106  
H529     H      0.889240000000     0.483590000000     0.465910000000     0.034103   
H530     H      0.892250000000     0.045880000000     0.460660000000     0.0326728  
H531     H      0.856990000000     0.068910000000     0.500990000000     0.0382379  
H532     H      0.914020000000     0.464390000000     0.995490000000     0.0385388  
H533     H      0.857240000000     0.466430000000     0.012500000000     0.0386048  
H534     H      0.882490000000     0.489170000000     0.039050000000     0.0355368  
H535     H      0.916590000000     0.067300000000     0.489140000000     0.0380008  
H536     H      0.880960000000     0.052970000000     0.033090000000     0.0326187  
H537     H      0.635580000000     0.478290000000     0.045600000000     0.0339612  
H538     H      0.636970000000     0.040200000000     0.048060000000     0.0324802  
H539     H      0.661620000000     0.064230000000     0.999850000000     0.0390601  
H540     H      0.607340000000     0.459530000000     0.518760000000     0.0372091  
H541     H      0.664130000000     0.461050000000     0.497360000000     0.0381151  
H542     H      0.635420000000     0.480750000000     0.471920000000     0.0347838  
H543     H      0.607850000000     0.062440000000     0.025430000000     0.0384912  
H544     H      0.632910000000     0.044220000000     0.474620000000     0.0343857  
H545     H      0.725280000000     0.256070000000     0.146780000000     0.0380173  
H546     H      0.773040000000     0.209820000000     0.151230000000     0.0353049  
H547     H      0.813870000000     0.226550000000     0.113980000000     0.0355094  
H548     H      0.731290000000     0.290260000000     0.172520000000     0.0339334  
H549     H      0.744000000000     0.302200000000     0.114910000000     0.0351344  
H550     H      0.778650000000     0.306800000000     0.140790000000     0.0367547  
H551     H      0.807060000000     0.220840000000     0.175190000000     0.0358766  
H552     H      0.823290000000     0.261110000000     0.137610000000     0.0340409  
H553     H      0.751470000000     0.296470000000     0.385760000000     0.0345326  
H554     H      0.798610000000     0.249350000000     0.391810000000     0.0381056  
H555     H      0.779960000000     0.205060000000     0.426300000000     0.0350035  
H556     H      0.716410000000     0.284280000000     0.364000000000     0.035575   
H557     H      0.712610000000     0.282940000000     0.425980000000     0.0355943  
H558     H      0.700800000000     0.247480000000     0.404960000000     0.0337706  
H559     H      0.791180000000     0.214030000000     0.368050000000     0.0334191  
H560     H      0.744290000000     0.200280000000     0.401870000000     0.0366634  
H561     H      0.763650000000     0.459140000000     0.128290000000     0.0350022  
H562     H      0.808520000000     0.005810000000     0.128070000000     0.0330604  
H563     H      0.788730000000     0.053180000000     0.099130000000     0.0343792  
H564     H      0.729430000000     0.465110000000     0.153920000000     0.0355531  
H565     H      0.719820000000     0.476700000000     0.094490000000     0.0353485  
H566     H      0.710540000000     0.508970000000     0.121300000000     0.0348757  
H567     H      0.802110000000     0.038150000000     0.156110000000     0.0345544  
H568     H      0.754520000000     0.056120000000     0.125810000000     0.0360468  
H569     H      0.761710000000     0.458530000000     0.370850000000     0.034534   
H570     H      0.714270000000     0.003210000000     0.371110000000     0.0336029  
H571     H      0.730080000000     0.050440000000     0.402650000000     0.0351526  
H572     H      0.796970000000     0.468020000000     0.347920000000     0.0358587  
H573     H      0.801500000000     0.476490000000     0.408710000000     0.0360333  
H574     H      0.811610000000     0.510240000000     0.384230000000     0.0344526  
H575     H      0.720460000000     0.036940000000     0.344730000000     0.0347759  
H576     H      0.765570000000     0.055830000000     0.378130000000     0.0366181  
H577     H      0.796370000000     0.379270000000     0.223520000000     0.0347772  
H578     H      0.732140000000     0.377490000000     0.225480000000     0.0346494  
H579     H      0.712800000000     0.349250000000     0.273560000000     0.0383174  
H580     H      0.816210000000     0.405370000000     0.251420000000     0.0383368  
H581     H      0.816580000000     0.347360000000     0.267780000000     0.0376739  
H582     H      0.798640000000     0.373570000000     0.296920000000     0.0341116  
H583     H      0.712280000000     0.404350000000     0.252690000000     0.0382277  
H584     H      0.734920000000     0.375940000000     0.299060000000     0.0345963  
H585     H      0.721540000000     0.130410000000     0.291770000000     0.0342735  
H586     H      0.785080000000     0.127900000000     0.300300000000     0.0347117  
H587     H      0.811910000000     0.098530000000     0.256900000000     0.0376739  
H588     H      0.706930000000     0.156080000000     0.260400000000     0.0378102  
H589     H      0.708640000000     0.097650000000     0.245500000000     0.0377     
H590     H      0.731200000000     0.123130000000     0.219120000000     0.0345106  
H591     H      0.809570000000     0.154040000000     0.276440000000     0.0385099  
H592     H      0.794930000000     0.124890000000     0.227370000000     0.0344799  
H593     H      0.959100000000     0.264040000000     0.129140000000     0.0344525  
H594     H      0.003850000000     0.310570000000     0.130640000000     0.0368247  
H595     H      0.548330000000     0.297060000000     0.167310000000     0.0331224  
H596     H      0.970140000000     0.227660000000     0.109240000000     0.0357084  
H597     H      0.973210000000     0.226880000000     0.170690000000     0.0354459  
H598     H      0.509050000000     0.214890000000     0.149970000000     0.0349059  
H599     H      0.540130000000     0.303180000000     0.107800000000     0.0344095  
H600     H      0.556310000000     0.260710000000     0.145330000000     0.0376771  
H601     H      0.518540000000     0.203030000000     0.392280000000     0.0363318  
H602     H      0.566410000000     0.245430000000     0.394590000000     0.034777   
H603     H      0.552360000000     0.289960000000     0.360470000000     0.0357041  
H604     H      0.984610000000     0.210310000000     0.418540000000     0.033829   
H605     H      0.973280000000     0.223790000000     0.360460000000     0.0340071  
H606     H      0.969170000000     0.257620000000     0.387070000000     0.0372672  
H607     H      0.560910000000     0.279580000000     0.420150000000     0.0343421  
H608     H      0.018940000000     0.300310000000     0.385690000000     0.0359528  
H609     H      0.000840000000     0.472750000000     0.140360000000     0.0353551  
H610     H      0.549590000000     0.518500000000     0.136740000000     0.0381623  
H611     H      0.532600000000     0.063160000000     0.102160000000     0.034495   
H612     H      0.966190000000     0.484770000000     0.162920000000     0.0360121  
H613     H      0.961120000000     0.489070000000     0.101670000000     0.0349276  
H614     H      0.951950000000     0.024570000000     0.124020000000     0.0383025  
H615     H      0.542560000000     0.053490000000     0.161050000000     0.0327686  
H616     H      0.497150000000     0.069510000000     0.126580000000     0.0367989  
H617     H      0.528550000000     0.454960000000     0.392180000000     0.0364918  
H618     H      0.571430000000     0.002520000000     0.393770000000     0.0321094  
H619     H      0.556670000000     0.038080000000     0.351320000000     0.0346689  
H620     H      0.992010000000     0.460840000000     0.415050000000     0.0353046  
H621     H      0.983290000000     0.466490000000     0.355660000000     0.0327564  
H622     H      0.974020000000     0.502600000000     0.377450000000     0.0383198  
H623     H      0.559170000000     0.038820000000     0.413040000000     0.0378028  
H624     H      0.020760000000     0.050320000000     0.371640000000     0.0336594  
H625     H      0.542370000000     0.383300000000     0.296220000000     0.0345721  
H626     H      0.478250000000     0.383440000000     0.293040000000     0.0352208  
H627     H      0.960920000000     0.413740000000     0.245710000000     0.0383953  
H628     H      0.563630000000     0.356940000000     0.269670000000     0.0385514  
H629     H      0.564800000000     0.413580000000     0.251280000000     0.037515   
H630     H      0.045820000000     0.387370000000     0.222730000000     0.0344932  
H631     H      0.959730000000     0.357180000000     0.264290000000     0.0381456  
H632     H      0.982740000000     0.387380000000     0.219640000000     0.0342596  
H633     H      0.545370000000     0.142250000000     0.229510000000     0.0349897  
H634     H      0.980530000000     0.142370000000     0.227680000000     0.0342552  
H635     H      0.959560000000     0.105580000000     0.267860000000     0.0373447  
H636     H      0.563980000000     0.164060000000     0.261740000000     0.0379544  
H637     H      0.563460000000     0.105300000000     0.271060000000     0.0383707  
H638     H      0.542420000000     0.127280000000     0.301520000000     0.0339242  
H639     H      0.960120000000     0.164330000000     0.258590000000     0.0382301  
H640     H      0.978810000000     0.127400000000     0.299760000000     0.0343871  
H641     H      0.897400000000     0.296210000000     0.534850000000     0.0348398  
H642     H      0.892680000000     0.228680000000     0.537280000000     0.0368669  
H643     H      0.857780000000     0.208400000000     0.993650000000     0.0378396  
H644     H      0.917720000000     0.310660000000     0.499800000000     0.0378535  
H645     H      0.855900000000     0.311260000000     0.497700000000     0.037632   
H646     H      0.875980000000     0.292190000000     0.964620000000     0.0335792  
H647     H      0.915080000000     0.208350000000     0.006500000000     0.0385568  
H648     H      0.880410000000     0.230850000000     0.964680000000     0.0334141  
H649     H      0.640310000000     0.277690000000     0.570380000000     0.033504   
H650     H      0.644300000000     0.216690000000     0.570100000000     0.0340009  
H651     H      0.608420000000     0.198500000000     0.028520000000     0.0382799  
H652     H      0.666940000000     0.300540000000     0.545390000000     0.03771    
H653     H      0.612020000000     0.301210000000     0.524170000000     0.0383437  
H654     H      0.638440000000     0.280810000000     0.996770000000     0.037014   
H655     H      0.668950000000     0.197700000000     0.040140000000     0.0375879  
H656     H      0.633600000000     0.214220000000     0.997350000000     0.0348455  
H657     H      0.889240000000     0.483590000000     0.965910000000     0.034107   
H658     H      0.892250000000     0.045880000000     0.960660000000     0.0326721  
H659     H      0.856990000000     0.068910000000     0.000990000000     0.038228   
H660     H      0.914020000000     0.464390000000     0.495490000000     0.0384969  
H661     H      0.857240000000     0.466430000000     0.512500000000     0.0386066  
H662     H      0.882490000000     0.489170000000     0.539050000000     0.0355251  
H663     H      0.916590000000     0.067300000000     0.989140000000     0.0380142  
H664     H      0.880960000000     0.052970000000     0.533090000000     0.0326113  
H665     H      0.635580000000     0.478290000000     0.545600000000     0.0339342  
H666     H      0.636970000000     0.040200000000     0.548060000000     0.0324576  
H667     H      0.661620000000     0.064230000000     0.499850000000     0.0390185  
H668     H      0.607340000000     0.459530000000     0.018750000000     0.03721    
H669     H      0.664130000000     0.461050000000     0.997360000000     0.0381316  
H670     H      0.635420000000     0.480750000000     0.971920000000     0.0347714  
H671     H      0.607850000000     0.062440000000     0.525430000000     0.0384856  
H672     H      0.632910000000     0.044220000000     0.974620000000     0.0343762  
H673     H      0.725280000000     0.256070000000     0.646780000000     0.0380164  
H674     H      0.773040000000     0.209820000000     0.651230000000     0.0353044  
H675     H      0.813870000000     0.226550000000     0.613980000000     0.0355197  
H676     H      0.731290000000     0.290260000000     0.672520000000     0.0339374  
H677     H      0.744000000000     0.302200000000     0.614910000000     0.0351389  
H678     H      0.778650000000     0.306800000000     0.640790000000     0.0367582  
H679     H      0.807060000000     0.220840000000     0.675190000000     0.0358699  
H680     H      0.823290000000     0.261110000000     0.637610000000     0.034049   
H681     H      0.751470000000     0.296470000000     0.885760000000     0.0345448  
H682     H      0.798610000000     0.249350000000     0.891810000000     0.0381181  
H683     H      0.779960000000     0.205060000000     0.926300000000     0.0350408  
H684     H      0.716410000000     0.284280000000     0.864000000000     0.0355765  
H685     H      0.712610000000     0.282940000000     0.925980000000     0.0356282  
H686     H      0.700800000000     0.247480000000     0.904960000000     0.0337873  
H687     H      0.791180000000     0.214030000000     0.868050000000     0.0334258  
H688     H      0.744290000000     0.200280000000     0.901880000000     0.0366864  
H689     H      0.763650000000     0.459140000000     0.628290000000     0.0350039  
H690     H      0.808520000000     0.005810000000     0.628070000000     0.0330612  
H691     H      0.788730000000     0.053180000000     0.599130000000     0.0343823  
H692     H      0.729430000000     0.465110000000     0.653920000000     0.0355542  
H693     H      0.719820000000     0.476700000000     0.594490000000     0.0353617  
H694     H      0.710540000000     0.508970000000     0.621300000000     0.0348823  
H695     H      0.802110000000     0.038150000000     0.656110000000     0.0345547  
H696     H      0.754520000000     0.056120000000     0.625810000000     0.0360505  
H697     H      0.761710000000     0.458530000000     0.870850000000     0.0345443  
H698     H      0.714270000000     0.003210000000     0.871100000000     0.0336169  
H699     H      0.730080000000     0.050440000000     0.902660000000     0.0351686  
H700     H      0.796970000000     0.468020000000     0.847920000000     0.0358667  
H701     H      0.801500000000     0.476490000000     0.908710000000     0.0360619  
H702     H      0.811610000000     0.510240000000     0.884230000000     0.0344692  
H703     H      0.720460000000     0.036940000000     0.844730000000     0.0347843  
H704     H      0.765570000000     0.055830000000     0.878130000000     0.0366268  
H705     H      0.796370000000     0.379270000000     0.723520000000     0.0347784  
H706     H      0.732140000000     0.377490000000     0.725480000000     0.0346518  
H707     H      0.712800000000     0.349250000000     0.773560000000     0.0383161  
H708     H      0.816210000000     0.405370000000     0.751420000000     0.0383369  
H709     H      0.816580000000     0.347360000000     0.767780000000     0.0376751  
H710     H      0.798640000000     0.373570000000     0.796920000000     0.0341136  
H711     H      0.712280000000     0.404350000000     0.752690000000     0.0382274  
H712     H      0.734920000000     0.375940000000     0.799060000000     0.0345967  
H713     H      0.721540000000     0.130410000000     0.791780000000     0.0342608  
H714     H      0.785080000000     0.127900000000     0.800300000000     0.0347115  
H715     H      0.811910000000     0.098530000000     0.756900000000     0.0376795  
H716     H      0.706930000000     0.156080000000     0.760400000000     0.0378081  
H717     H      0.708640000000     0.097650000000     0.745500000000     0.0376877  
H718     H      0.731200000000     0.123130000000     0.719120000000     0.0344977  
H719     H      0.809570000000     0.154040000000     0.776440000000     0.0385095  
H720     H      0.794930000000     0.124890000000     0.727370000000     0.034488   
H721     H      0.959100000000     0.264040000000     0.629140000000     0.0344544  
H722     H      0.003850000000     0.310570000000     0.630640000000     0.0368281  
H723     H      0.548330000000     0.297060000000     0.667310000000     0.0331208  
H724     H      0.970140000000     0.227660000000     0.609240000000     0.0357109  
H725     H      0.973210000000     0.226880000000     0.670690000000     0.0354451  
H726     H      0.509050000000     0.214890000000     0.649970000000     0.0349055  
H727     H      0.540130000000     0.303180000000     0.607800000000     0.034412   
H728     H      0.556310000000     0.260710000000     0.645330000000     0.0376745  
H729     H      0.518540000000     0.203030000000     0.892280000000     0.0363593  
H730     H      0.566410000000     0.245430000000     0.894600000000     0.0347957  
H731     H      0.552360000000     0.289960000000     0.860460000000     0.035703   
H732     H      0.984610000000     0.210310000000     0.918530000000     0.033874   
H733     H      0.973280000000     0.223790000000     0.860460000000     0.0340078  
H734     H      0.969170000000     0.257620000000     0.887070000000     0.0372785  
H735     H      0.560910000000     0.279580000000     0.920150000000     0.0343798  
H736     H      0.018940000000     0.300310000000     0.885690000000     0.0359638  
H737     H      0.000840000000     0.472750000000     0.640360000000     0.0353573  
H738     H      0.549590000000     0.518500000000     0.636740000000     0.0381616  
H739     H      0.532600000000     0.063160000000     0.602160000000     0.0344977  
H740     H      0.966190000000     0.484770000000     0.662920000000     0.0360133  
H741     H      0.961120000000     0.489070000000     0.601670000000     0.0349401  
H742     H      0.951950000000     0.024570000000     0.624020000000     0.0383091  
H743     H      0.542560000000     0.053490000000     0.661050000000     0.0327692  
H744     H      0.497150000000     0.069510000000     0.626580000000     0.0368026  
H745     H      0.528550000000     0.454960000000     0.892190000000     0.0365109  
H746     H      0.571430000000     0.002520000000     0.893760000000     0.0321184  
H747     H      0.556670000000     0.038080000000     0.851320000000     0.0346704  
H748     H      0.992010000000     0.460840000000     0.915050000000     0.0353298  
H749     H      0.983290000000     0.466490000000     0.855660000000     0.0327606  
H750     H      0.974020000000     0.502600000000     0.877450000000     0.0383273  
H751     H      0.559170000000     0.038820000000     0.913040000000     0.0378251  
H752     H      0.020760000000     0.050320000000     0.871640000000     0.0336678  
H753     H      0.542370000000     0.383300000000     0.796220000000     0.0345729  
H754     H      0.478250000000     0.383440000000     0.793040000000     0.0352205  
H755     H      0.960920000000     0.413740000000     0.745710000000     0.0384083  
H756     H      0.563630000000     0.356940000000     0.769680000000     0.0385499  
H757     H      0.564800000000     0.413580000000     0.751280000000     0.0375147  
H758     H      0.045820000000     0.387370000000     0.722730000000     0.0344937  
H759     H      0.959730000000     0.357180000000     0.764290000000     0.0381425  
H760     H      0.982740000000     0.387380000000     0.719640000000     0.0342742  
H761     H      0.545370000000     0.142250000000     0.729510000000     0.0349895  
H762     H      0.980530000000     0.142370000000     0.727680000000     0.0342549  
H763     H      0.959560000000     0.105580000000     0.767860000000     0.0373447  
H764     H      0.563980000000     0.164060000000     0.761740000000     0.0379533  
H765     H      0.563460000000     0.105300000000     0.771060000000     0.0383693  
H766     H      0.542420000000     0.127280000000     0.801520000000     0.0339245  
H767     H      0.960120000000     0.164330000000     0.758590000000     0.0382296  
H768     H      0.978810000000     0.127400000000     0.799760000000     0.0343896  
H769     H      0.897400000000     0.796210000000     0.034850000000     0.0349991  
H770     H      0.892680000000     0.728680000000     0.037280000000     0.0368772  
H771     H      0.857780000000     0.708400000000     0.493650000000     0.0377297  
H772     H      0.917720000000     0.810660000000     0.999800000000     0.0382679  
H773     H      0.855900000000     0.811260000000     0.997700000000     0.0378088  
H774     H      0.875980000000     0.792200000000     0.464620000000     0.0336895  
H775     H      0.915080000000     0.708350000000     0.506500000000     0.0385319  
H776     H      0.880410000000     0.730850000000     0.464680000000     0.0333798  
H777     H      0.640310000000     0.777690000000     0.070380000000     0.0335646  
H778     H      0.644300000000     0.716680000000     0.070100000000     0.0339582  
H779     H      0.608420000000     0.698500000000     0.528520000000     0.0381858  
H780     H      0.666940000000     0.800540000000     0.045390000000     0.0378323  
H781     H      0.612020000000     0.801210000000     0.024160000000     0.0385764  
H782     H      0.638440000000     0.780810000000     0.496770000000     0.0368833  
H783     H      0.668950000000     0.697700000000     0.540140000000     0.0376009  
H784     H      0.633600000000     0.714220000000     0.497350000000     0.034549   
H785     H      0.889240000000     0.983590000000     0.465910000000     0.0368886  
H786     H      0.892250000000     0.545880000000     0.460660000000     0.0345532  
H787     H      0.856990000000     0.568910000000     0.500990000000     0.0379444  
H788     H      0.914020000000     0.964390000000     0.995490000000     0.038081   
H789     H      0.857240000000     0.966430000000     0.012500000000     0.0383115  
H790     H      0.882490000000     0.989170000000     0.039050000000     0.0385378  
H791     H      0.916590000000     0.567300000000     0.489140000000     0.0377627  
H792     H      0.880960000000     0.552970000000     0.033090000000     0.0340615  
H793     H      0.635580000000     0.978280000000     0.045600000000     0.036531   
H794     H      0.636970000000     0.540200000000     0.048060000000     0.0345173  
H795     H      0.661620000000     0.564230000000     0.999850000000     0.0387368  
H796     H      0.607340000000     0.959530000000     0.518760000000     0.0370233  
H797     H      0.664130000000     0.961040000000     0.497360000000     0.037892   
H798     H      0.635420000000     0.980750000000     0.471920000000     0.037956   
H799     H      0.607850000000     0.562440000000     0.025430000000     0.0382538  
H800     H      0.632910000000     0.544230000000     0.474620000000     0.0358268  
H801     H      0.725280000000     0.756070000000     0.146780000000     0.0380032  
H802     H      0.773040000000     0.709830000000     0.151230000000     0.0352924  
H803     H      0.813870000000     0.726550000000     0.113980000000     0.035484   
H804     H      0.731290000000     0.790260000000     0.172520000000     0.0340543  
H805     H      0.744000000000     0.802200000000     0.114910000000     0.0353157  
H806     H      0.778650000000     0.806800000000     0.140790000000     0.0370048  
H807     H      0.807060000000     0.720840000000     0.175190000000     0.0358757  
H808     H      0.823290000000     0.761110000000     0.137610000000     0.0341039  
H809     H      0.751470000000     0.796470000000     0.385760000000     0.0347366  
H810     H      0.798610000000     0.749350000000     0.391810000000     0.038126   
H811     H      0.779960000000     0.705060000000     0.426300000000     0.0349489  
H812     H      0.716410000000     0.784280000000     0.364000000000     0.0357413  
H813     H      0.712610000000     0.782940000000     0.425980000000     0.0357167  
H814     H      0.700800000000     0.747480000000     0.404960000000     0.0337467  
H815     H      0.791180000000     0.714030000000     0.368050000000     0.0333965  
H816     H      0.744290000000     0.700280000000     0.401870000000     0.036607   
H817     H      0.763650000000     0.959150000000     0.128290000000     0.0374078  
H818     H      0.808520000000     0.505810000000     0.128070000000     0.0369164  
H819     H      0.788730000000     0.553180000000     0.099130000000     0.0346543  
H820     H      0.729430000000     0.965110000000     0.153920000000     0.0380977  
H821     H      0.719820000000     0.976700000000     0.094490000000     0.0326888  
H822     H      0.710540000000     0.008970000000     0.121300000000     0.0199037  
H823     H      0.802110000000     0.538150000000     0.156110000000     0.0347702  
H824     H      0.754520000000     0.556120000000     0.125810000000     0.0365562  
H825     H      0.761710000000     0.958530000000     0.370850000000     0.0369776  
H826     H      0.714270000000     0.503210000000     0.371110000000     0.0372149  
H827     H      0.730080000000     0.550440000000     0.402650000000     0.0353979  
H828     H      0.796970000000     0.968020000000     0.347920000000     0.0385179  
H829     H      0.801500000000     0.976490000000     0.408710000000     0.0333107  
H830     H      0.811610000000     0.010240000000     0.384230000000     0.0194879  
H831     H      0.720460000000     0.536940000000     0.344730000000     0.0348369  
H832     H      0.765570000000     0.555830000000     0.378130000000     0.0371346  
H833     H      0.796370000000     0.879270000000     0.223520000000     0.0355538  
H834     H      0.732140000000     0.877490000000     0.225480000000     0.0352498  
H835     H      0.712800000000     0.849250000000     0.273560000000     0.0387173  
H836     H      0.816210000000     0.905370000000     0.251420000000     0.0397458  
H837     H      0.816580000000     0.847360000000     0.267780000000     0.0379549  
H838     H      0.798640000000     0.873570000000     0.296920000000     0.0347179  
H839     H      0.712280000000     0.904350000000     0.252690000000     0.0397083  
H840     H      0.734920000000     0.875940000000     0.299060000000     0.0354881  
H841     H      0.721540000000     0.630410000000     0.291770000000     0.0343476  
H842     H      0.785080000000     0.627890000000     0.300300000000     0.0348892  
H843     H      0.811910000000     0.598530000000     0.256900000000     0.0381453  
H844     H      0.706930000000     0.656080000000     0.260400000000     0.0378427  
H845     H      0.708640000000     0.597650000000     0.245500000000     0.0380941  
H846     H      0.731200000000     0.623130000000     0.219120000000     0.0346197  
H847     H      0.809570000000     0.654040000000     0.276440000000     0.0385904  
H848     H      0.794930000000     0.624890000000     0.227370000000     0.0345366  
H849     H      0.959100000000     0.764040000000     0.129140000000     0.0344947  
H850     H      0.003850000000     0.810570000000     0.130640000000     0.0370378  
H851     H      0.548330000000     0.797060000000     0.167310000000     0.0333118  
H852     H      0.970140000000     0.727660000000     0.109240000000     0.0356621  
H853     H      0.973210000000     0.726880000000     0.170690000000     0.0354674  
H854     H      0.509050000000     0.714890000000     0.149970000000     0.034899   
H855     H      0.540130000000     0.803180000000     0.107800000000     0.0345631  
H856     H      0.556310000000     0.760710000000     0.145330000000     0.0376807  
H857     H      0.518540000000     0.703030000000     0.392280000000     0.0362824  
H858     H      0.566410000000     0.745430000000     0.394590000000     0.0347392  
H859     H      0.552360000000     0.789960000000     0.360470000000     0.0359169  
H860     H      0.984610000000     0.710310000000     0.418540000000     0.0337854  
H861     H      0.973280000000     0.723790000000     0.360460000000     0.033994   
H862     H      0.969170000000     0.757620000000     0.387070000000     0.0373052  
H863     H      0.560910000000     0.779580000000     0.420150000000     0.0344292  
H864     H      0.018940000000     0.800310000000     0.385690000000     0.0361912  
H865     H      0.000840000000     0.972750000000     0.140360000000     0.0324027  
H866     H      0.549590000000     0.018500000000     0.136740000000     0.0343399  
H867     H      0.532600000000     0.563160000000     0.102160000000     0.0341089  
H868     H      0.966190000000     0.984770000000     0.162920000000     0.034401   
H869     H      0.961120000000     0.989070000000     0.101670000000     0.0516816  
H870     H      0.951950000000     0.524570000000     0.124020000000     0.0337705  
H871     H      0.542560000000     0.553490000000     0.161050000000     0.0334843  
H872     H      0.497150000000     0.569510000000     0.126580000000     0.0362055  
H873     H      0.528550000000     0.954960000000     0.392180000000     0.041021   
H874     H      0.571430000000     0.502520000000     0.393770000000     0.0337506  
H875     H      0.556670000000     0.538080000000     0.351320000000     0.0359258  
H876     H      0.992010000000     0.960830000000     0.415050000000     0.0397163  
H877     H      0.983290000000     0.966490000000     0.355660000000     0.030183   
H878     H      0.974020000000     0.002610000000     0.377450000000     0.0225134  
H879     H      0.559170000000     0.538820000000     0.413040000000     0.0357606  
H880     H      0.020760000000     0.550330000000     0.371640000000     0.0349679  
H881     H      0.542370000000     0.883300000000     0.296220000000     0.0355591  
H882     H      0.478250000000     0.883440000000     0.293040000000     0.0360913  
H883     H      0.960920000000     0.913750000000     0.245710000000     0.0399719  
H884     H      0.563630000000     0.856940000000     0.269670000000     0.0389992  
H885     H      0.564800000000     0.913580000000     0.251280000000     0.0393155  
H886     H      0.045820000000     0.887370000000     0.222730000000     0.035321   
H887     H      0.959730000000     0.857180000000     0.264290000000     0.0385199  
H888     H      0.982740000000     0.887380000000     0.219640000000     0.0349753  
H889     H      0.545370000000     0.642250000000     0.229510000000     0.0350255  
H890     H      0.980530000000     0.642370000000     0.227680000000     0.0343099  
H891     H      0.959560000000     0.605580000000     0.267860000000     0.0376971  
H892     H      0.563980000000     0.664060000000     0.261740000000     0.0379569  
H893     H      0.563460000000     0.605300000000     0.271060000000     0.0385734  
H894     H      0.542420000000     0.627280000000     0.301520000000     0.0339299  
H895     H      0.960120000000     0.664340000000     0.258590000000     0.0382667  
H896     H      0.978810000000     0.627400000000     0.299760000000     0.0344868  
H897     H      0.897400000000     0.796210000000     0.534850000000     0.0349289  
H898     H      0.892680000000     0.728680000000     0.537280000000     0.0368512  
H899     H      0.857780000000     0.708400000000     0.993650000000     0.0377785  
H900     H      0.917720000000     0.810660000000     0.499800000000     0.0379804  
H901     H      0.855900000000     0.811260000000     0.497700000000     0.0377798  
H902     H      0.875980000000     0.792200000000     0.964620000000     0.0336597  
H903     H      0.915080000000     0.708350000000     0.006500000000     0.0385223  
H904     H      0.880410000000     0.730850000000     0.964680000000     0.0333774  
H905     H      0.640310000000     0.777690000000     0.570380000000     0.0335783  
H906     H      0.644300000000     0.716680000000     0.570100000000     0.0339713  
H907     H      0.608420000000     0.698500000000     0.028520000000     0.0382162  
H908     H      0.666940000000     0.800540000000     0.545390000000     0.037882   
H909     H      0.612020000000     0.801210000000     0.524170000000     0.0385458  
H910     H      0.638440000000     0.780810000000     0.996770000000     0.0371208  
H911     H      0.668950000000     0.697700000000     0.040140000000     0.0375456  
H912     H      0.633600000000     0.714220000000     0.997350000000     0.0347839  
H913     H      0.889240000000     0.983590000000     0.965910000000     0.0368925  
H914     H      0.892250000000     0.545880000000     0.960660000000     0.0345525  
H915     H      0.856990000000     0.568910000000     0.000990000000     0.0379345  
H916     H      0.914020000000     0.964390000000     0.495490000000     0.0380393  
H917     H      0.857240000000     0.966430000000     0.512500000000     0.0383133  
H918     H      0.882490000000     0.989170000000     0.539050000000     0.0385262  
H919     H      0.916590000000     0.567300000000     0.989140000000     0.0377762  
H920     H      0.880960000000     0.552970000000     0.533090000000     0.0340542  
H921     H      0.635580000000     0.978280000000     0.545600000000     0.0365066  
H922     H      0.636970000000     0.540200000000     0.548060000000     0.0344947  
H923     H      0.661620000000     0.564230000000     0.499850000000     0.0386951  
H924     H      0.607340000000     0.959530000000     0.018750000000     0.037024   
H925     H      0.664130000000     0.961040000000     0.997360000000     0.0379082  
H926     H      0.635420000000     0.980750000000     0.971920000000     0.0379432  
H927     H      0.607850000000     0.562440000000     0.525430000000     0.0382481  
H928     H      0.632910000000     0.544230000000     0.974620000000     0.0358173  
H929     H      0.725280000000     0.756070000000     0.646780000000     0.0380023  
H930     H      0.773040000000     0.709830000000     0.651230000000     0.0352919  
H931     H      0.813870000000     0.726550000000     0.613980000000     0.0354943  
H932     H      0.731290000000     0.790260000000     0.672520000000     0.0340583  
H933     H      0.744000000000     0.802200000000     0.614910000000     0.0353202  
H934     H      0.778650000000     0.806800000000     0.640790000000     0.0370084  
H935     H      0.807060000000     0.720840000000     0.675190000000     0.035869   
H936     H      0.823290000000     0.761110000000     0.637610000000     0.034112   
H937     H      0.751470000000     0.796470000000     0.885760000000     0.0347487  
H938     H      0.798610000000     0.749350000000     0.891810000000     0.0381386  
H939     H      0.779960000000     0.705060000000     0.926300000000     0.0349863  
H940     H      0.716410000000     0.784280000000     0.864000000000     0.0357427  
H941     H      0.712610000000     0.782940000000     0.925980000000     0.0357505  
H942     H      0.700800000000     0.747480000000     0.904960000000     0.0337634  
H943     H      0.791180000000     0.714030000000     0.868050000000     0.0334033  
H944     H      0.744290000000     0.700280000000     0.901880000000     0.03663    
H945     H      0.763650000000     0.959150000000     0.628290000000     0.0374098  
H946     H      0.808520000000     0.505810000000     0.628070000000     0.0369173  
H947     H      0.788730000000     0.553180000000     0.599130000000     0.0346575  
H948     H      0.729430000000     0.965110000000     0.653920000000     0.0380989  
H949     H      0.719820000000     0.976700000000     0.594490000000     0.0327022  
H950     H      0.710540000000     0.008970000000     0.621300000000     0.0199096  
H951     H      0.802110000000     0.538150000000     0.656110000000     0.0347705  
H952     H      0.754520000000     0.556120000000     0.625810000000     0.03656    
H953     H      0.761710000000     0.958530000000     0.870850000000     0.0369883  
H954     H      0.714270000000     0.503210000000     0.871100000000     0.0372282  
H955     H      0.730080000000     0.550440000000     0.902660000000     0.0354142  
H956     H      0.796970000000     0.968020000000     0.847920000000     0.0385265  
H957     H      0.801500000000     0.976490000000     0.908710000000     0.0333389  
H958     H      0.811610000000     0.010240000000     0.884230000000     0.0195045  
H959     H      0.720460000000     0.536940000000     0.844730000000     0.0348447  
H960     H      0.765570000000     0.555830000000     0.878130000000     0.0371435  
H961     H      0.796370000000     0.879270000000     0.723520000000     0.035555   
H962     H      0.732140000000     0.877490000000     0.725480000000     0.0352521  
H963     H      0.712800000000     0.849250000000     0.773560000000     0.038716   
H964     H      0.816210000000     0.905370000000     0.751420000000     0.039746   
H965     H      0.816580000000     0.847360000000     0.767780000000     0.0379561  
H966     H      0.798640000000     0.873570000000     0.796920000000     0.0347199  
H967     H      0.712280000000     0.904350000000     0.752690000000     0.0397079  
H968     H      0.734920000000     0.875940000000     0.799060000000     0.0354885  
H969     H      0.721540000000     0.630410000000     0.791780000000     0.0343349  
H970     H      0.785080000000     0.627890000000     0.800300000000     0.034889   
H971     H      0.811910000000     0.598530000000     0.756900000000     0.038151   
H972     H      0.706930000000     0.656080000000     0.760400000000     0.0378406  
H973     H      0.708640000000     0.597650000000     0.745500000000     0.0380819  
H974     H      0.731200000000     0.623130000000     0.719120000000     0.0346068  
H975     H      0.809570000000     0.654040000000     0.776440000000     0.03859    
H976     H      0.794930000000     0.624890000000     0.727370000000     0.0345447  
H977     H      0.959100000000     0.764040000000     0.629140000000     0.0344967  
H978     H      0.003850000000     0.810570000000     0.630640000000     0.0370412  
H979     H      0.548330000000     0.797060000000     0.667310000000     0.0333103  
H980     H      0.970140000000     0.727660000000     0.609240000000     0.0356645  
H981     H      0.973210000000     0.726880000000     0.670690000000     0.0354666  
H982     H      0.509050000000     0.714890000000     0.649970000000     0.0348986  
H983     H      0.540130000000     0.803180000000     0.607800000000     0.0345656  
H984     H      0.556310000000     0.760710000000     0.645330000000     0.037678   
H985     H      0.518540000000     0.703030000000     0.892280000000     0.0363099  
H986     H      0.566410000000     0.745430000000     0.894600000000     0.0347579  
H987     H      0.552360000000     0.789960000000     0.860460000000     0.0359157  
H988     H      0.984610000000     0.710310000000     0.918530000000     0.0338305  
H989     H      0.973280000000     0.723790000000     0.860460000000     0.0339947  
H990     H      0.969170000000     0.757620000000     0.887070000000     0.0373165  
H991     H      0.560910000000     0.779580000000     0.920150000000     0.0344669  
H992     H      0.018940000000     0.800310000000     0.885690000000     0.0362022  
H993     H      0.000840000000     0.972750000000     0.640360000000     0.0324048  
H994     H      0.549590000000     0.018500000000     0.636740000000     0.0343389  
H995     H      0.532600000000     0.563160000000     0.602160000000     0.0341115  
H996     H      0.966190000000     0.984770000000     0.662920000000     0.034402   
H997     H      0.961120000000     0.989070000000     0.601670000000     0.0516945  
H998     H      0.951950000000     0.524570000000     0.624020000000     0.033777   
H999     H      0.542560000000     0.553490000000     0.661050000000     0.033485   
H1000    H      0.497150000000     0.569510000000     0.626580000000     0.0362092  
H1001    H      0.528550000000     0.954960000000     0.892190000000     0.0410407  
H1002    H      0.571430000000     0.502520000000     0.893760000000     0.0337598  
H1003    H      0.556670000000     0.538080000000     0.851320000000     0.0359273  
H1004    H      0.992010000000     0.960830000000     0.915050000000     0.0397414  
H1005    H      0.983290000000     0.966490000000     0.855660000000     0.0301871  
H1006    H      0.974020000000     0.002610000000     0.877450000000     0.0225209  
H1007    H      0.559170000000     0.538820000000     0.913040000000     0.0357831  
H1008    H      0.020760000000     0.550330000000     0.871640000000     0.0349764  
H1009    H      0.542370000000     0.883300000000     0.796220000000     0.0355598  
H1010    H      0.478250000000     0.883440000000     0.793040000000     0.036091   
H1011    H      0.960920000000     0.913750000000     0.745710000000     0.039985   
H1012    H      0.563630000000     0.856940000000     0.769680000000     0.0389977  
H1013    H      0.564800000000     0.913580000000     0.751280000000     0.0393153  
H1014    H      0.045820000000     0.887370000000     0.722730000000     0.0353216  
H1015    H      0.959730000000     0.857180000000     0.764290000000     0.0385167  
H1016    H      0.982740000000     0.887380000000     0.719640000000     0.03499    
H1017    H      0.545370000000     0.642250000000     0.729510000000     0.0350254  
H1018    H      0.980530000000     0.642370000000     0.727680000000     0.0343095  
H1019    H      0.959560000000     0.605580000000     0.767860000000     0.0376971  
H1020    H      0.563980000000     0.664060000000     0.761740000000     0.0379557  
H1021    H      0.563460000000     0.605300000000     0.771060000000     0.038572   
H1022    H      0.542420000000     0.627280000000     0.801520000000     0.0339302  
H1023    H      0.960120000000     0.664340000000     0.758590000000     0.0382662  
H1024    H      0.978810000000     0.627400000000     0.799760000000     0.0344894  
N1       N      0.353360000000     0.259880000000     0.996300000000    -0.180063   
N2       N      0.419930000000     0.259860000000     0.007820000000    -0.179578   
N3       N      0.107190000000     0.249670000000     0.022040000000    -0.179894   
N4       N      0.171450000000     0.249080000000     0.042230000000    -0.180502   
N5       N      0.353660000000     0.017930000000     0.008710000000    -0.184205   
N6       N      0.418820000000     0.015820000000     0.991630000000    -0.184617   
N7       N      0.166120000000     0.012740000000     0.996630000000    -0.184216   
N8       N      0.104190000000     0.010850000000     0.022660000000    -0.184762   
N9       N      0.279990000000     0.265390000000     0.111690000000    -0.179531   
N10      N      0.266630000000     0.253020000000     0.176330000000    -0.179335   
N11      N      0.245110000000     0.243020000000     0.429010000000    -0.179818   
N12      N      0.256430000000     0.251650000000     0.363390000000    -0.17951    
N13      N      0.252870000000     0.516400000000     0.094440000000    -0.180762   
N14      N      0.267290000000     0.500170000000     0.157360000000    -0.180648   
N15      N      0.267270000000     0.515160000000     0.408240000000    -0.180191   
N16      N      0.257160000000     0.000770000000     0.343800000000    -0.183192   
N17      N      0.264850000000     0.344940000000     0.272230000000    -0.179887   
N18      N      0.264220000000     0.408170000000     0.250070000000    -0.179596   
N19      N      0.260480000000     0.094720000000     0.249250000000    -0.179117   
N20      N      0.257900000000     0.158440000000     0.270230000000    -0.179507   
N21      N      0.512720000000     0.260210000000     0.171620000000    -0.181192   
N22      N      0.504020000000     0.266470000000     0.105850000000    -0.181043   
N23      N      0.511040000000     0.258820000000     0.358140000000    -0.180891   
N24      N      0.523600000000     0.243890000000     0.421690000000    -0.181275   
N25      N      0.996080000000     0.526930000000     0.099290000000    -0.180202   
N26      N      0.006960000000     0.516550000000     0.164520000000    -0.18014    
N27      N      0.017310000000     0.504620000000     0.350750000000    -0.180191   
N28      N      0.026510000000     0.499090000000     0.416860000000    -0.180379   
N29      N      0.513010000000     0.417050000000     0.247570000000    -0.180507   
N30      N      0.011490000000     0.353750000000     0.268810000000    -0.180312   
N31      N      0.511380000000     0.101960000000     0.270330000000    -0.180268   
N32      N      0.012200000000     0.167710000000     0.258250000000    -0.18051    
N33      N      0.353360000000     0.259880000000     0.496300000000    -0.18016    
N34      N      0.419930000000     0.259860000000     0.507820000000    -0.17963    
N35      N      0.107190000000     0.249670000000     0.522040000000    -0.179946   
N36      N      0.171450000000     0.249080000000     0.542230000000    -0.180456   
N37      N      0.353660000000     0.017930000000     0.508710000000    -0.184234   
N38      N      0.418820000000     0.015820000000     0.491640000000    -0.184593   
N39      N      0.166120000000     0.012740000000     0.496620000000    -0.184169   
N40      N      0.104190000000     0.010850000000     0.522660000000    -0.184796   
N41      N      0.279990000000     0.265390000000     0.611690000000    -0.179531   
N42      N      0.266630000000     0.253020000000     0.676330000000    -0.179337   
N43      N      0.245110000000     0.243020000000     0.929010000000    -0.179722   
N44      N      0.256430000000     0.251650000000     0.863380000000    -0.179598   
N45      N      0.252870000000     0.516400000000     0.594440000000    -0.180756   
N46      N      0.267290000000     0.500170000000     0.657360000000    -0.180649   
N47      N      0.267270000000     0.515160000000     0.908240000000    -0.180167   
N48      N      0.257160000000     0.000770000000     0.843790000000    -0.183275   
N49      N      0.264850000000     0.344940000000     0.772230000000    -0.179886   
N50      N      0.264220000000     0.408170000000     0.750070000000    -0.179596   
N51      N      0.260480000000     0.094720000000     0.749250000000    -0.17912    
N52      N      0.257900000000     0.158440000000     0.770230000000    -0.179509   
N53      N      0.512720000000     0.260210000000     0.671620000000    -0.181195   
N54      N      0.504020000000     0.266470000000     0.605850000000    -0.181046   
N55      N      0.511040000000     0.258820000000     0.858140000000    -0.180895   
N56      N      0.523600000000     0.243890000000     0.921690000000    -0.181167   
N57      N      0.996080000000     0.526930000000     0.599290000000    -0.180209   
N58      N      0.006960000000     0.516550000000     0.664520000000    -0.18014    
N59      N      0.017310000000     0.504620000000     0.850750000000    -0.18019    
N60      N      0.026510000000     0.499090000000     0.916860000000    -0.180366   
N61      N      0.513010000000     0.417050000000     0.747570000000    -0.1805     
N62      N      0.011490000000     0.353750000000     0.768810000000    -0.180316   
N63      N      0.511380000000     0.101960000000     0.770330000000    -0.180279   
N64      N      0.012200000000     0.167710000000     0.758250000000    -0.180512   
N65      N      0.353360000000     0.759880000000     0.996300000000    -0.180137   
N66      N      0.419930000000     0.759870000000     0.007820000000    -0.179589   
N67      N      0.107190000000     0.749670000000     0.022040000000    -0.179898   
N68      N      0.171450000000     0.749080000000     0.042230000000    -0.180405   
N69      N      0.353660000000     0.517940000000     0.008710000000    -0.179852   
N70      N      0.418820000000     0.515820000000     0.991630000000    -0.180193   
N71      N      0.166120000000     0.512740000000     0.996630000000    -0.179941   
N72      N      0.104190000000     0.510850000000     0.022660000000    -0.180369   
N73      N      0.279990000000     0.765390000000     0.111690000000    -0.179517   
N74      N      0.266630000000     0.753020000000     0.176330000000    -0.179338   
N75      N      0.245110000000     0.743020000000     0.429010000000    -0.179857   
N76      N      0.256430000000     0.751650000000     0.363390000000    -0.179509   
N77      N      0.252870000000     0.016400000000     0.094440000000    -0.186907   
N78      N      0.267290000000     0.000170000000     0.157360000000    -0.183558   
N79      N      0.267270000000     0.015160000000     0.408240000000    -0.186386   
N80      N      0.257160000000     0.500770000000     0.343800000000    -0.18034    
N81      N      0.264850000000     0.844940000000     0.272230000000    -0.179854   
N82      N      0.264220000000     0.908170000000     0.250070000000    -0.178246   
N83      N      0.260480000000     0.594720000000     0.249250000000    -0.179491   
N84      N      0.257900000000     0.658440000000     0.270230000000    -0.179516   
N85      N      0.512720000000     0.760210000000     0.171620000000    -0.18117    
N86      N      0.504020000000     0.766470000000     0.105850000000    -0.181127   
N87      N      0.511040000000     0.758820000000     0.358140000000    -0.180861   
N88      N      0.523600000000     0.743890000000     0.421690000000    -0.181312   
N89      N      0.996080000000     0.026930000000     0.099290000000    -0.174481   
N90      N      0.006960000000     0.016550000000     0.164520000000    -0.18885    
N91      N      0.017310000000     0.004620000000     0.350750000000    -0.189974   
N92      N      0.026510000000     0.999090000000     0.416860000000    -0.16109    
N93      N      0.513010000000     0.917050000000     0.247570000000    -0.179235   
N94      N      0.011490000000     0.853750000000     0.268810000000    -0.180252   
N95      N      0.511380000000     0.601960000000     0.270330000000    -0.18047    
N96      N      0.012200000000     0.667710000000     0.258250000000    -0.180539   
N97      N      0.353360000000     0.759880000000     0.496300000000    -0.180233   
N98      N      0.419930000000     0.759870000000     0.507820000000    -0.179642   
N99      N      0.107190000000     0.749670000000     0.522040000000    -0.179949   
N100     N      0.171450000000     0.749080000000     0.542230000000    -0.180359   
N101     N      0.353660000000     0.517940000000     0.508710000000    -0.17988    
N102     N      0.418820000000     0.515820000000     0.491640000000    -0.18017    
N103     N      0.166120000000     0.512740000000     0.496620000000    -0.179894   
N104     N      0.104190000000     0.510850000000     0.522660000000    -0.180404   
N105     N      0.279990000000     0.765390000000     0.611690000000    -0.179516   
N106     N      0.266630000000     0.753020000000     0.676330000000    -0.17934    
N107     N      0.245110000000     0.743020000000     0.929010000000    -0.17976    
N108     N      0.256430000000     0.751650000000     0.863380000000    -0.179597   
N109     N      0.252870000000     0.016400000000     0.594440000000    -0.186902   
N110     N      0.267290000000     0.000170000000     0.657360000000    -0.183559   
N111     N      0.267270000000     0.015160000000     0.908240000000    -0.186362   
N112     N      0.257160000000     0.500770000000     0.843790000000    -0.180428   
N113     N      0.264850000000     0.844940000000     0.772230000000    -0.179853   
N114     N      0.264220000000     0.908170000000     0.750070000000    -0.178246   
N115     N      0.260480000000     0.594720000000     0.749250000000    -0.179495   
N116     N      0.257900000000     0.658440000000     0.770230000000    -0.179518   
N117     N      0.512720000000     0.760210000000     0.671620000000    -0.181173   
N118     N      0.504020000000     0.766470000000     0.605850000000    -0.18113    
N119     N      0.511040000000     0.758820000000     0.858140000000    -0.180865   
N120     N      0.523600000000     0.743890000000     0.921690000000    -0.181204   
N121     N      0.996080000000     0.026930000000     0.599290000000    -0.174487   
N122     N      0.006960000000     0.016550000000     0.664520000000    -0.188851   
N123     N      0.017310000000     0.004620000000     0.850750000000    -0.189973   
N124     N      0.026510000000     0.999090000000     0.916860000000    -0.161078   
N125     N      0.513010000000     0.917050000000     0.747570000000    -0.179227   
N126     N      0.011490000000     0.853750000000     0.768810000000    -0.180255   
N127     N      0.511380000000     0.601960000000     0.770330000000    -0.18048    
N128     N      0.012200000000     0.667710000000     0.758250000000    -0.180541   
N129     N      0.853360000000     0.259880000000     0.996300000000    -0.180065   
N130     N      0.919940000000     0.259860000000     0.007820000000    -0.179646   
N131     N      0.607190000000     0.249670000000     0.022040000000    -0.179906   
N132     N      0.671450000000     0.249080000000     0.042230000000    -0.180505   
N133     N      0.853660000000     0.017930000000     0.008710000000    -0.184201   
N134     N      0.918820000000     0.015820000000     0.991630000000    -0.184533   
N135     N      0.666120000000     0.012740000000     0.996630000000    -0.184224   
N136     N      0.604190000000     0.010850000000     0.022660000000    -0.184755   
N137     N      0.779990000000     0.265390000000     0.111690000000    -0.179532   
N138     N      0.766630000000     0.253020000000     0.176330000000    -0.179332   
N139     N      0.745110000000     0.243020000000     0.429010000000    -0.179827   
N140     N      0.756430000000     0.251650000000     0.363390000000    -0.17951    
N141     N      0.752870000000     0.516400000000     0.094440000000    -0.180762   
N142     N      0.767290000000     0.500170000000     0.157360000000    -0.180639   
N143     N      0.767260000000     0.515160000000     0.408240000000    -0.180196   
N144     N      0.757160000000     0.000770000000     0.343800000000    -0.183195   
N145     N      0.764850000000     0.344940000000     0.272230000000    -0.179891   
N146     N      0.764220000000     0.408170000000     0.250070000000    -0.179586   
N147     N      0.760480000000     0.094720000000     0.249250000000    -0.179114   
N148     N      0.757900000000     0.158440000000     0.270230000000    -0.179487   
N149     N      0.012720000000     0.260210000000     0.171620000000    -0.181283   
N150     N      0.004020000000     0.266470000000     0.105850000000    -0.181123   
N151     N      0.011040000000     0.258820000000     0.358140000000    -0.180975   
N152     N      0.023600000000     0.243890000000     0.421690000000    -0.181242   
N153     N      0.496080000000     0.526930000000     0.099290000000    -0.180461   
N154     N      0.506960000000     0.516550000000     0.164520000000    -0.18002    
N155     N      0.517310000000     0.504620000000     0.350750000000    -0.180099   
N156     N      0.526510000000     0.499090000000     0.416860000000    -0.180431   
N157     N      0.013010000000     0.417050000000     0.247570000000    -0.180561   
N158     N      0.511490000000     0.353750000000     0.268810000000    -0.180231   
N159     N      0.011380000000     0.101960000000     0.270330000000    -0.180329   
N160     N      0.512200000000     0.167710000000     0.258250000000    -0.18045    
N161     N      0.853360000000     0.259880000000     0.496300000000    -0.180162   
N162     N      0.919940000000     0.259860000000     0.507820000000    -0.179699   
N163     N      0.607190000000     0.249670000000     0.522040000000    -0.179957   
N164     N      0.671450000000     0.249080000000     0.542230000000    -0.180459   
N165     N      0.853660000000     0.017930000000     0.508710000000    -0.18423    
N166     N      0.918820000000     0.015820000000     0.491640000000    -0.18451    
N167     N      0.666120000000     0.012740000000     0.496620000000    -0.184177   
N168     N      0.604190000000     0.010850000000     0.522660000000    -0.184789   
N169     N      0.779990000000     0.265390000000     0.611690000000    -0.179532   
N170     N      0.766630000000     0.253020000000     0.676330000000    -0.179334   
N171     N      0.745110000000     0.243020000000     0.929010000000    -0.17973    
N172     N      0.756430000000     0.251650000000     0.863380000000    -0.179598   
N173     N      0.752870000000     0.516400000000     0.594440000000    -0.180756   
N174     N      0.767290000000     0.500170000000     0.657360000000    -0.180639   
N175     N      0.767260000000     0.515160000000     0.908240000000    -0.180172   
N176     N      0.757160000000     0.000770000000     0.843790000000    -0.183278   
N177     N      0.764850000000     0.344940000000     0.772230000000    -0.17989    
N178     N      0.764220000000     0.408170000000     0.750070000000    -0.179586   
N179     N      0.760480000000     0.094720000000     0.749250000000    -0.179117   
N180     N      0.757900000000     0.158440000000     0.770230000000    -0.179489   
N181     N      0.012720000000     0.260210000000     0.671620000000    -0.181287   
N182     N      0.004020000000     0.266470000000     0.605850000000    -0.181126   
N183     N      0.011040000000     0.258820000000     0.858140000000    -0.180979   
N184     N      0.023600000000     0.243890000000     0.921690000000    -0.181135   
N185     N      0.496080000000     0.526930000000     0.599290000000    -0.180468   
N186     N      0.506960000000     0.516550000000     0.664520000000    -0.18002    
N187     N      0.517310000000     0.504620000000     0.850750000000    -0.180099   
N188     N      0.526510000000     0.499090000000     0.916860000000    -0.180418   
N189     N      0.013010000000     0.417050000000     0.747570000000    -0.180553   
N190     N      0.511490000000     0.353750000000     0.768810000000    -0.180235   
N191     N      0.011380000000     0.101960000000     0.770330000000    -0.180339   
N192     N      0.512200000000     0.167710000000     0.758250000000    -0.180452   
N193     N      0.853360000000     0.759880000000     0.996300000000    -0.180139   
N194     N      0.919940000000     0.759870000000     0.007820000000    -0.179657   
N195     N      0.607190000000     0.749670000000     0.022040000000    -0.179909   
N196     N      0.671450000000     0.749080000000     0.042230000000    -0.180407   
N197     N      0.853660000000     0.517940000000     0.008710000000    -0.17985    
N198     N      0.918820000000     0.515820000000     0.991630000000    -0.180108   
N199     N      0.666120000000     0.512740000000     0.996630000000    -0.179947   
N200     N      0.604190000000     0.510850000000     0.022660000000    -0.180365   
N201     N      0.779990000000     0.765390000000     0.111690000000    -0.179518   
N202     N      0.766630000000     0.753020000000     0.176330000000    -0.179334   
N203     N      0.745110000000     0.743020000000     0.429010000000    -0.179866   
N204     N      0.756430000000     0.751650000000     0.363390000000    -0.179509   
N205     N      0.752870000000     0.016400000000     0.094440000000    -0.186907   
N206     N      0.767290000000     0.000170000000     0.157360000000    -0.183549   
N207     N      0.767260000000     0.015160000000     0.408240000000    -0.186386   
N208     N      0.757160000000     0.500770000000     0.343800000000    -0.18034    
N209     N      0.764850000000     0.844940000000     0.272230000000    -0.179858   
N210     N      0.764220000000     0.908170000000     0.250070000000    -0.178237   
N211     N      0.760480000000     0.594720000000     0.249250000000    -0.179488   
N212     N      0.757900000000     0.658440000000     0.270230000000    -0.179496   
N213     N      0.012720000000     0.760210000000     0.171620000000    -0.181261   
N214     N      0.004020000000     0.766470000000     0.105850000000    -0.181207   
N215     N      0.011040000000     0.758820000000     0.358140000000    -0.180945   
N216     N      0.023600000000     0.743890000000     0.421690000000    -0.181279   
N217     N      0.496080000000     0.026930000000     0.099290000000    -0.174739   
N218     N      0.506960000000     0.016550000000     0.164520000000    -0.188732   
N219     N      0.517310000000     0.004620000000     0.350750000000    -0.189883   
N220     N      0.526510000000     0.999090000000     0.416860000000    -0.161141   
N221     N      0.013010000000     0.917050000000     0.247570000000    -0.179288   
N222     N      0.511490000000     0.853750000000     0.268810000000    -0.180171   
N223     N      0.011380000000     0.601960000000     0.270330000000    -0.18053    
N224     N      0.512200000000     0.667710000000     0.258250000000    -0.180479   
N225     N      0.853360000000     0.759880000000     0.496300000000    -0.180235   
N226     N      0.919940000000     0.759870000000     0.507820000000    -0.17971    
N227     N      0.607190000000     0.749670000000     0.522040000000    -0.179961   
N228     N      0.671450000000     0.749080000000     0.542230000000    -0.180361   
N229     N      0.853660000000     0.517940000000     0.508710000000    -0.179878   
N230     N      0.918820000000     0.515820000000     0.491640000000    -0.180084   
N231     N      0.666120000000     0.512740000000     0.496620000000    -0.1799     
N232     N      0.604190000000     0.510850000000     0.522660000000    -0.180399   
N233     N      0.779990000000     0.765390000000     0.611690000000    -0.179517   
N234     N      0.766630000000     0.753020000000     0.676330000000    -0.179336   
N235     N      0.745110000000     0.743020000000     0.929010000000    -0.179769   
N236     N      0.756430000000     0.751650000000     0.863380000000    -0.179597   
N237     N      0.752870000000     0.016400000000     0.594440000000    -0.186902   
N238     N      0.767290000000     0.000170000000     0.657360000000    -0.183549   
N239     N      0.767260000000     0.015160000000     0.908240000000    -0.186362   
N240     N      0.757160000000     0.500770000000     0.843790000000    -0.180428   
N241     N      0.764850000000     0.844940000000     0.772230000000    -0.179858   
N242     N      0.764220000000     0.908170000000     0.750070000000    -0.178237   
N243     N      0.760480000000     0.594720000000     0.749250000000    -0.179491   
N244     N      0.757900000000     0.658440000000     0.770230000000    -0.179498   
N245     N      0.012720000000     0.760210000000     0.671620000000    -0.181264   
N246     N      0.004020000000     0.766470000000     0.605850000000    -0.18121    
N247     N      0.011040000000     0.758820000000     0.858140000000    -0.180949   
N248     N      0.023600000000     0.743890000000     0.921690000000    -0.181172   
N249     N      0.496080000000     0.026930000000     0.599290000000    -0.174745   
N250     N      0.506960000000     0.016550000000     0.664520000000    -0.188732   
N251     N      0.517310000000     0.004620000000     0.850750000000    -0.189882   
N252     N      0.526510000000     0.999090000000     0.916860000000    -0.161129   
N253     N      0.013010000000     0.917050000000     0.747570000000    -0.179281   
N254     N      0.511490000000     0.853750000000     0.768810000000    -0.180174   
N255     N      0.011380000000     0.601960000000     0.770330000000    -0.180541   
N256     N      0.512200000000     0.667710000000     0.758250000000    -0.180481   
O1       O      0.487860000000     0.003960000000     0.304390000000    -0.559543   
O2       O      0.482800000000     0.512630000000     0.213670000000    -0.557929   
O3       O      0.485820000000     0.464040000000     0.254350000000    -0.562551   
O4       O      0.484860000000     0.054110000000     0.263840000000    -0.554906   
O5       O      0.038490000000     0.055370000000     0.260960000000    -0.5592     
O6       O      0.039470000000     0.465220000000     0.251790000000    -0.557004   
O7       O      0.036480000000     0.015460000000     0.210880000000    -0.557575   
O8       O      0.041540000000     0.507050000000     0.301600000000    -0.558194   
O9       O      0.038270000000     0.260150000000     0.310560000000    -0.560793   
O10      O      0.039160000000     0.263230000000     0.219520000000    -0.560775   
O11      O      0.038490000000     0.306190000000     0.266790000000    -0.562924   
O12      O      0.038890000000     0.215680000000     0.263090000000    -0.557952   
O13      O      0.485170000000     0.215060000000     0.262840000000    -0.56336    
O14      O      0.484780000000     0.305590000000     0.266150000000    -0.557504   
O15      O      0.485370000000     0.260740000000     0.219080000000    -0.561009   
O16      O      0.484480000000     0.258000000000     0.310130000000    -0.560141   
O17      O      0.286560000000     0.499040000000     0.297420000000    -0.556958   
O18      O      0.291350000000     0.004710000000     0.206480000000    -0.550647   
O19      O      0.287770000000     0.047220000000     0.254050000000    -0.552949   
O20      O      0.290210000000     0.456640000000     0.249710000000    -0.555957   
O21      O      0.236540000000     0.455650000000     0.251640000000    -0.557465   
O22      O      0.234610000000     0.046230000000     0.246500000000    -0.551214   
O23      O      0.238070000000     0.497700000000     0.203740000000    -0.558034   
O24      O      0.233060000000     0.003950000000     0.294570000000    -0.550999   
O25      O      0.232130000000     0.253180000000     0.314090000000    -0.554673   
O26      O      0.237210000000     0.254510000000     0.222830000000    -0.554689   
O27      O      0.232800000000     0.207550000000     0.267720000000    -0.553319   
O28      O      0.236510000000     0.298180000000     0.269400000000    -0.560609   
O29      O      0.290130000000     0.295890000000     0.271630000000    -0.553961   
O30      O      0.286350000000     0.205240000000     0.271200000000    -0.560048   
O31      O      0.290750000000     0.249910000000     0.225670000000    -0.554576   
O32      O      0.285760000000     0.249540000000     0.316930000000    -0.555413   
O33      O      0.521400000000     0.032730000000     0.459920000000    -0.546967   
O34      O      0.006180000000     0.046340000000     0.048980000000    -0.551029   
O35      O      0.057830000000     0.038320000000     0.512310000000    -0.556937   
O36      O      0.467920000000     0.041010000000     0.996460000000    -0.550398   
O37      O      0.464790000000     0.488370000000     0.504100000000    -0.561129   
O38      O      0.055000000000     0.485530000000     0.019050000000    -0.554837   
O39      O      0.501650000000     0.493620000000     0.056180000000    -0.557324   
O40      O      0.016260000000     0.480100000000     0.467210000000    -0.559927   
O41      O      0.014950000000     0.223070000000     0.471590000000    -0.559512   
O42      O      0.506900000000     0.234070000000     0.061780000000    -0.55843    
O43      O      0.466490000000     0.231180000000     0.512590000000    -0.564457   
O44      O      0.057230000000     0.225690000000     0.020890000000    -0.55619    
O45      O      0.060890000000     0.278540000000     0.515250000000    -0.562347   
O46      O      0.469950000000     0.284020000000     0.006730000000    -0.553991   
O47      O      0.012230000000     0.286880000000     0.055810000000    -0.562211   
O48      O      0.520570000000     0.275890000000     0.465880000000    -0.560885   
O49      O      0.259660000000     0.041760000000     0.455540000000    -0.552423   
O50      O      0.258950000000     0.042560000000     0.046710000000    -0.553256   
O51      O      0.305050000000     0.043430000000     0.502100000000    -0.550744   
O52      O      0.213590000000     0.040690000000     0.000300000000    -0.552007   
O53      O      0.215270000000     0.487610000000     0.496220000000    -0.558108   
O54      O      0.305900000000     0.490420000000     0.007230000000    -0.559431   
O55      O      0.254390000000     0.489380000000     0.046800000000    -0.557838   
O56      O      0.266860000000     0.488880000000     0.456390000000    -0.556836   
O57      O      0.249760000000     0.275260000000     0.473270000000    -0.553457   
O58      O      0.268990000000     0.286210000000     0.062040000000    -0.554886   
O59      O      0.304660000000     0.283970000000     0.507180000000    -0.554354   
O60      O      0.215900000000     0.277790000000     0.027860000000    -0.563035   
O61      O      0.220580000000     0.224990000000     0.533220000000    -0.554072   
O62      O      0.309470000000     0.231180000000     0.012590000000    -0.561588   
O63      O      0.275560000000     0.233490000000     0.067260000000    -0.554659   
O64      O      0.256310000000     0.222570000000     0.478680000000    -0.55834    
O65      O      0.487860000000     0.003960000000     0.804390000000    -0.559527   
O66      O      0.482800000000     0.512630000000     0.713670000000    -0.557935   
O67      O      0.485820000000     0.464040000000     0.754350000000    -0.562544   
O68      O      0.484860000000     0.054110000000     0.763850000000    -0.554879   
O69      O      0.038490000000     0.055370000000     0.760960000000    -0.559182   
O70      O      0.039470000000     0.465220000000     0.751790000000    -0.557003   
O71      O      0.036480000000     0.015460000000     0.710880000000    -0.557575   
O72      O      0.041540000000     0.507050000000     0.801600000000    -0.558195   
O73      O      0.038270000000     0.260150000000     0.810550000000    -0.560926   
O74      O      0.039160000000     0.263230000000     0.719520000000    -0.560832   
O75      O      0.038490000000     0.306190000000     0.766790000000    -0.562965   
O76      O      0.038890000000     0.215680000000     0.763090000000    -0.557992   
O77      O      0.485170000000     0.215060000000     0.762840000000    -0.563354   
O78      O      0.484780000000     0.305590000000     0.766150000000    -0.557498   
O79      O      0.485370000000     0.260740000000     0.719080000000    -0.561008   
O80      O      0.484480000000     0.258000000000     0.810130000000    -0.560105   
O81      O      0.286560000000     0.499040000000     0.797420000000    -0.55699    
O82      O      0.291350000000     0.004710000000     0.706480000000    -0.55065    
O83      O      0.287770000000     0.047220000000     0.754050000000    -0.55295    
O84      O      0.290210000000     0.456640000000     0.749710000000    -0.555958   
O85      O      0.236540000000     0.455650000000     0.751640000000    -0.557467   
O86      O      0.234610000000     0.046230000000     0.746500000000    -0.551216   
O87      O      0.238070000000     0.497700000000     0.703740000000    -0.558036   
O88      O      0.233060000000     0.003950000000     0.794570000000    -0.551031   
O89      O      0.232130000000     0.253180000000     0.814090000000    -0.55457    
O90      O      0.237210000000     0.254510000000     0.722830000000    -0.554787   
O91      O      0.232800000000     0.207550000000     0.767710000000    -0.553304   
O92      O      0.236510000000     0.298180000000     0.769390000000    -0.560594   
O93      O      0.290130000000     0.295890000000     0.771630000000    -0.553996   
O94      O      0.286350000000     0.205240000000     0.771200000000    -0.560084   
O95      O      0.290750000000     0.249910000000     0.725680000000    -0.55471    
O96      O      0.285760000000     0.249540000000     0.816930000000    -0.555485   
O97      O      0.521400000000     0.032730000000     0.959920000000    -0.546926   
O98      O      0.006180000000     0.046340000000     0.548980000000    -0.551234   
O99      O      0.057830000000     0.038320000000     0.012310000000    -0.556877   
O100     O      0.467920000000     0.041010000000     0.496460000000    -0.550521   
O101     O      0.464790000000     0.488370000000     0.004100000000    -0.561398   
O102     O      0.055000000000     0.485530000000     0.519050000000    -0.554831   
O103     O      0.501650000000     0.493620000000     0.556180000000    -0.557365   
O104     O      0.016260000000     0.480100000000     0.967210000000    -0.559772   
O105     O      0.014950000000     0.223070000000     0.971590000000    -0.559411   
O106     O      0.506900000000     0.234070000000     0.561780000000    -0.558476   
O107     O      0.466490000000     0.231180000000     0.012590000000    -0.564453   
O108     O      0.057230000000     0.225690000000     0.520890000000    -0.556191   
O109     O      0.060890000000     0.278540000000     0.015250000000    -0.562347   
O110     O      0.469950000000     0.284020000000     0.506730000000    -0.553967   
O111     O      0.012230000000     0.286880000000     0.555810000000    -0.562256   
O112     O      0.520570000000     0.275890000000     0.965880000000    -0.560766   
O113     O      0.259660000000     0.041760000000     0.955540000000    -0.552093   
O114     O      0.258950000000     0.042560000000     0.546710000000    -0.553091   
O115     O      0.305050000000     0.043430000000     0.002100000000    -0.550763   
O116     O      0.213590000000     0.040690000000     0.500300000000    -0.551773   
O117     O      0.215270000000     0.487610000000     0.996220000000    -0.557923   
O118     O      0.305900000000     0.490420000000     0.507230000000    -0.55951    
O119     O      0.254390000000     0.489380000000     0.546790000000    -0.557997   
O120     O      0.266860000000     0.488880000000     0.956390000000    -0.556556   
O121     O      0.249760000000     0.275260000000     0.973270000000    -0.55334    
O122     O      0.268990000000     0.286210000000     0.562040000000    -0.554927   
O123     O      0.304660000000     0.283970000000     0.007180000000    -0.554358   
O124     O      0.215900000000     0.277790000000     0.527860000000    -0.563062   
O125     O      0.220580000000     0.224990000000     0.033230000000    -0.554019   
O126     O      0.309470000000     0.231180000000     0.512590000000    -0.561599   
O127     O      0.275560000000     0.233490000000     0.567260000000    -0.554719   
O128     O      0.256310000000     0.222570000000     0.978680000000    -0.558243   
O129     O      0.487860000000     0.503960000000     0.304390000000    -0.557307   
O130     O      0.482800000000     0.012630000000     0.213670000000    -0.56008    
O131     O      0.485820000000     0.964040000000     0.254350000000    -0.550644   
O132     O      0.484860000000     0.554110000000     0.263840000000    -0.557626   
O133     O      0.038490000000     0.555360000000     0.260960000000    -0.562235   
O134     O      0.039470000000     0.965220000000     0.251790000000    -0.544839   
O135     O      0.036480000000     0.515460000000     0.210880000000    -0.55693    
O136     O      0.041540000000     0.007050000000     0.301600000000    -0.559104   
O137     O      0.038270000000     0.760150000000     0.310560000000    -0.560819   
O138     O      0.039160000000     0.763230000000     0.219520000000    -0.560801   
O139     O      0.038490000000     0.806180000000     0.266790000000    -0.56295    
O140     O      0.038890000000     0.715680000000     0.263090000000    -0.558051   
O141     O      0.485170000000     0.715060000000     0.262840000000    -0.563388   
O142     O      0.484780000000     0.805590000000     0.266150000000    -0.557375   
O143     O      0.485370000000     0.760740000000     0.219080000000    -0.56098    
O144     O      0.484480000000     0.758000000000     0.310130000000    -0.560113   
O145     O      0.286560000000     0.999030000000     0.297420000000    -0.53032    
O146     O      0.291350000000     0.504710000000     0.206480000000    -0.557428   
O147     O      0.287770000000     0.547220000000     0.254050000000    -0.557244   
O148     O      0.290210000000     0.956640000000     0.249710000000    -0.542567   
O149     O      0.236540000000     0.955640000000     0.251640000000    -0.543974   
O150     O      0.234610000000     0.546220000000     0.246500000000    -0.555846   
O151     O      0.238070000000     0.997700000000     0.203740000000    -0.531325   
O152     O      0.233060000000     0.503950000000     0.294570000000    -0.558      
O153     O      0.232130000000     0.753180000000     0.314090000000    -0.554669   
O154     O      0.237210000000     0.754510000000     0.222830000000    -0.554687   
O155     O      0.232800000000     0.707550000000     0.267720000000    -0.553359   
O156     O      0.236510000000     0.798180000000     0.269400000000    -0.560521   
O157     O      0.290130000000     0.795890000000     0.271630000000    -0.553882   
O158     O      0.286350000000     0.705240000000     0.271200000000    -0.560083   
O159     O      0.290750000000     0.749910000000     0.225670000000    -0.554568   
O160     O      0.285760000000     0.749550000000     0.316930000000    -0.555419   
O161     O      0.521400000000     0.532730000000     0.459920000000    -0.555112   
O162     O      0.006180000000     0.546340000000     0.048980000000    -0.557189   
O163     O      0.057830000000     0.538320000000     0.512310000000    -0.562558   
O164     O      0.467920000000     0.541010000000     0.996460000000    -0.555762   
O165     O      0.464790000000     0.988370000000     0.504100000000    -0.548414   
O166     O      0.055000000000     0.985530000000     0.019050000000    -0.541613   
O167     O      0.501650000000     0.993620000000     0.056180000000    -0.543043   
O168     O      0.016260000000     0.980090000000     0.467210000000    -0.544138   
O169     O      0.014950000000     0.723070000000     0.471590000000    -0.559623   
O170     O      0.506900000000     0.734070000000     0.061780000000    -0.558551   
O171     O      0.466490000000     0.731180000000     0.512590000000    -0.564514   
O172     O      0.057230000000     0.725690000000     0.020890000000    -0.556281   
O173     O      0.060890000000     0.778540000000     0.515250000000    -0.562355   
O174     O      0.469950000000     0.784020000000     0.006730000000    -0.554004   
O175     O      0.012230000000     0.786870000000     0.055810000000    -0.562401   
O176     O      0.520570000000     0.775890000000     0.465880000000    -0.560909   
O177     O      0.259660000000     0.541760000000     0.455540000000    -0.557675   
O178     O      0.258950000000     0.542560000000     0.046710000000    -0.558531   
O179     O      0.305050000000     0.543430000000     0.502100000000    -0.556044   
O180     O      0.213590000000     0.540690000000     0.000300000000    -0.557315   
O181     O      0.215270000000     0.987610000000     0.496220000000    -0.545259   
O182     O      0.305900000000     0.990420000000     0.007230000000    -0.54661    
O183     O      0.254390000000     0.989380000000     0.046800000000    -0.545262   
O184     O      0.266860000000     0.988880000000     0.456390000000    -0.544186   
O185     O      0.249760000000     0.775260000000     0.473270000000    -0.553337   
O186     O      0.268990000000     0.786210000000     0.062040000000    -0.554836   
O187     O      0.304660000000     0.783960000000     0.507180000000    -0.554527   
O188     O      0.215900000000     0.777800000000     0.027860000000    -0.562785   
O189     O      0.220580000000     0.724980000000     0.533220000000    -0.553888   
O190     O      0.309470000000     0.731180000000     0.012590000000    -0.561693   
O191     O      0.275560000000     0.733490000000     0.067260000000    -0.554693   
O192     O      0.256310000000     0.722570000000     0.478680000000    -0.55854    
O193     O      0.487860000000     0.503960000000     0.804390000000    -0.557291   
O194     O      0.482800000000     0.012630000000     0.713670000000    -0.560086   
O195     O      0.485820000000     0.964040000000     0.754350000000    -0.550637   
O196     O      0.484860000000     0.554110000000     0.763850000000    -0.557599   
O197     O      0.038490000000     0.555360000000     0.760960000000    -0.562217   
O198     O      0.039470000000     0.965220000000     0.751790000000    -0.544838   
O199     O      0.036480000000     0.515460000000     0.710880000000    -0.55693    
O200     O      0.041540000000     0.007050000000     0.801600000000    -0.559105   
O201     O      0.038270000000     0.760150000000     0.810550000000    -0.560952   
O202     O      0.039160000000     0.763230000000     0.719520000000    -0.560858   
O203     O      0.038490000000     0.806180000000     0.766790000000    -0.562991   
O204     O      0.038890000000     0.715680000000     0.763090000000    -0.55809    
O205     O      0.485170000000     0.715060000000     0.762840000000    -0.563382   
O206     O      0.484780000000     0.805590000000     0.766150000000    -0.557369   
O207     O      0.485370000000     0.760740000000     0.719080000000    -0.560979   
O208     O      0.484480000000     0.758000000000     0.810130000000    -0.560077   
O209     O      0.286560000000     0.999030000000     0.797420000000    -0.530352   
O210     O      0.291350000000     0.504710000000     0.706480000000    -0.557431   
O211     O      0.287770000000     0.547220000000     0.754050000000    -0.557245   
O212     O      0.290210000000     0.956640000000     0.749710000000    -0.542568   
O213     O      0.236540000000     0.955640000000     0.751640000000    -0.543976   
O214     O      0.234610000000     0.546220000000     0.746500000000    -0.555849   
O215     O      0.238070000000     0.997700000000     0.703740000000    -0.531326   
O216     O      0.233060000000     0.503950000000     0.794570000000    -0.558032   
O217     O      0.232130000000     0.753180000000     0.814090000000    -0.554566   
O218     O      0.237210000000     0.754510000000     0.722830000000    -0.554786   
O219     O      0.232800000000     0.707550000000     0.767710000000    -0.553343   
O220     O      0.236510000000     0.798180000000     0.769390000000    -0.560506   
O221     O      0.290130000000     0.795890000000     0.771630000000    -0.553917   
O222     O      0.286350000000     0.705240000000     0.771200000000    -0.560118   
O223     O      0.290750000000     0.749910000000     0.725680000000    -0.554702   
O224     O      0.285760000000     0.749550000000     0.816930000000    -0.55549    
O225     O      0.521400000000     0.532730000000     0.959920000000    -0.555072   
O226     O      0.006180000000     0.546340000000     0.548980000000    -0.557396   
O227     O      0.057830000000     0.538320000000     0.012310000000    -0.562497   
O228     O      0.467920000000     0.541010000000     0.496460000000    -0.555884   
O229     O      0.464790000000     0.988370000000     0.004100000000    -0.548681   
O230     O      0.055000000000     0.985530000000     0.519050000000    -0.541607   
O231     O      0.501650000000     0.993620000000     0.556180000000    -0.543083   
O232     O      0.016260000000     0.980090000000     0.967210000000    -0.543984   
O233     O      0.014950000000     0.723070000000     0.971590000000    -0.559522   
O234     O      0.506900000000     0.734070000000     0.561780000000    -0.558597   
O235     O      0.466490000000     0.731180000000     0.012590000000    -0.56451    
O236     O      0.057230000000     0.725690000000     0.520890000000    -0.556282   
O237     O      0.060890000000     0.778540000000     0.015250000000    -0.562355   
O238     O      0.469950000000     0.784020000000     0.506730000000    -0.55398    
O239     O      0.012230000000     0.786870000000     0.555810000000    -0.562446   
O240     O      0.520570000000     0.775890000000     0.965880000000    -0.56079    
O241     O      0.259660000000     0.541760000000     0.955540000000    -0.557343   
O242     O      0.258950000000     0.542560000000     0.546710000000    -0.558362   
O243     O      0.305050000000     0.543430000000     0.002100000000    -0.556063   
O244     O      0.213590000000     0.540690000000     0.500300000000    -0.55708    
O245     O      0.215270000000     0.987610000000     0.996220000000    -0.545076   
O246     O      0.305900000000     0.990420000000     0.507230000000    -0.546688   
O247     O      0.254390000000     0.989380000000     0.546790000000    -0.545425   
O248     O      0.266860000000     0.988880000000     0.956390000000    -0.543908   
O249     O      0.249760000000     0.775260000000     0.973270000000    -0.55322    
O250     O      0.268990000000     0.786210000000     0.562040000000    -0.554877   
O251     O      0.304660000000     0.783960000000     0.007180000000    -0.554532   
O252     O      0.215900000000     0.777800000000     0.527860000000    -0.562813   
O253     O      0.220580000000     0.724980000000     0.033230000000    -0.553834   
O254     O      0.309470000000     0.731180000000     0.512590000000    -0.561704   
O255     O      0.275560000000     0.733490000000     0.567260000000    -0.554754   
O256     O      0.256310000000     0.722570000000     0.978680000000    -0.558443   
O257     O      0.987860000000     0.003960000000     0.304390000000    -0.559371   
O258     O      0.982800000000     0.512630000000     0.213670000000    -0.55776    
O259     O      0.985820000000     0.464040000000     0.254350000000    -0.562378   
O260     O      0.984860000000     0.054110000000     0.263840000000    -0.55473    
O261     O      0.538490000000     0.055370000000     0.260960000000    -0.559274   
O262     O      0.539470000000     0.465220000000     0.251790000000    -0.557075   
O263     O      0.536480000000     0.015460000000     0.210880000000    -0.557643   
O264     O      0.541540000000     0.507050000000     0.301600000000    -0.558266   
O265     O      0.538270000000     0.260150000000     0.310560000000    -0.560975   
O266     O      0.539160000000     0.263230000000     0.219520000000    -0.560741   
O267     O      0.538490000000     0.306190000000     0.266790000000    -0.562999   
O268     O      0.538890000000     0.215680000000     0.263090000000    -0.558024   
O269     O      0.985170000000     0.215060000000     0.262840000000    -0.563188   
O270     O      0.984780000000     0.305590000000     0.266150000000    -0.557328   
O271     O      0.985370000000     0.260740000000     0.219080000000    -0.560728   
O272     O      0.984480000000     0.258000000000     0.310130000000    -0.560075   
O273     O      0.786560000000     0.499040000000     0.297420000000    -0.556926   
O274     O      0.791350000000     0.004710000000     0.206480000000    -0.550616   
O275     O      0.787770000000     0.047220000000     0.254050000000    -0.55292    
O276     O      0.790210000000     0.456640000000     0.249710000000    -0.556031   
O277     O      0.736540000000     0.455650000000     0.251640000000    -0.557309   
O278     O      0.734610000000     0.046230000000     0.246500000000    -0.55116    
O279     O      0.738070000000     0.497700000000     0.203740000000    -0.557991   
O280     O      0.733060000000     0.003950000000     0.294570000000    -0.550941   
O281     O      0.732130000000     0.253180000000     0.314090000000    -0.554679   
O282     O      0.737210000000     0.254510000000     0.222830000000    -0.554694   
O283     O      0.732800000000     0.207550000000     0.267720000000    -0.553326   
O284     O      0.736510000000     0.298180000000     0.269400000000    -0.560729   
O285     O      0.790130000000     0.295890000000     0.271630000000    -0.553855   
O286     O      0.786350000000     0.205240000000     0.271200000000    -0.56004    
O287     O      0.790750000000     0.249910000000     0.225670000000    -0.55457    
O288     O      0.785760000000     0.249540000000     0.316930000000    -0.555408   
O289     O      0.021400000000     0.032730000000     0.459920000000    -0.547005   
O290     O      0.506180000000     0.046340000000     0.048980000000    -0.551018   
O291     O      0.557840000000     0.038320000000     0.512310000000    -0.556838   
O292     O      0.967920000000     0.041010000000     0.996460000000    -0.550375   
O293     O      0.964790000000     0.488370000000     0.504100000000    -0.561042   
O294     O      0.555000000000     0.485530000000     0.019050000000    -0.554909   
O295     O      0.001650000000     0.493620000000     0.056180000000    -0.557303   
O296     O      0.516260000000     0.480100000000     0.467210000000    -0.559923   
O297     O      0.514960000000     0.223070000000     0.471590000000    -0.559518   
O298     O      0.006900000000     0.234070000000     0.061780000000    -0.558486   
O299     O      0.966490000000     0.231180000000     0.512590000000    -0.564484   
O300     O      0.557230000000     0.225690000000     0.020890000000    -0.556366   
O301     O      0.560890000000     0.278540000000     0.515250000000    -0.562403   
O302     O      0.969950000000     0.284020000000     0.006730000000    -0.553871   
O303     O      0.512230000000     0.286880000000     0.055810000000    -0.5622     
O304     O      0.020570000000     0.275890000000     0.465880000000    -0.560874   
O305     O      0.759660000000     0.041760000000     0.455540000000    -0.552425   
O306     O      0.758950000000     0.042560000000     0.046710000000    -0.553257   
O307     O      0.805050000000     0.043430000000     0.502100000000    -0.550742   
O308     O      0.713590000000     0.040690000000     0.000300000000    -0.552008   
O309     O      0.715270000000     0.487610000000     0.496220000000    -0.558109   
O310     O      0.805900000000     0.490420000000     0.007230000000    -0.55943    
O311     O      0.754390000000     0.489380000000     0.046800000000    -0.557838   
O312     O      0.766860000000     0.488880000000     0.456390000000    -0.556837   
O313     O      0.749760000000     0.275260000000     0.473270000000    -0.553458   
O314     O      0.768990000000     0.286210000000     0.062040000000    -0.554886   
O315     O      0.804660000000     0.283970000000     0.507180000000    -0.554353   
O316     O      0.715900000000     0.277790000000     0.027860000000    -0.563036   
O317     O      0.720580000000     0.224990000000     0.533220000000    -0.554074   
O318     O      0.809470000000     0.231180000000     0.012590000000    -0.561587   
O319     O      0.775560000000     0.233490000000     0.067260000000    -0.554659   
O320     O      0.756310000000     0.222570000000     0.478680000000    -0.558341   
O321     O      0.987860000000     0.003960000000     0.804390000000    -0.559356   
O322     O      0.982800000000     0.512630000000     0.713670000000    -0.557767   
O323     O      0.985820000000     0.464040000000     0.754350000000    -0.562371   
O324     O      0.984860000000     0.054110000000     0.763850000000    -0.554704   
O325     O      0.538490000000     0.055370000000     0.760960000000    -0.559256   
O326     O      0.539470000000     0.465220000000     0.751790000000    -0.557074   
O327     O      0.536480000000     0.015460000000     0.710880000000    -0.557643   
O328     O      0.541540000000     0.507050000000     0.801600000000    -0.558267   
O329     O      0.538270000000     0.260150000000     0.810550000000    -0.561108   
O330     O      0.539160000000     0.263230000000     0.719520000000    -0.560799   
O331     O      0.538490000000     0.306190000000     0.766790000000    -0.563039   
O332     O      0.538890000000     0.215680000000     0.763090000000    -0.558063   
O333     O      0.985170000000     0.215060000000     0.762840000000    -0.563182   
O334     O      0.984780000000     0.305590000000     0.766150000000    -0.557323   
O335     O      0.985370000000     0.260740000000     0.719080000000    -0.560727   
O336     O      0.984480000000     0.258000000000     0.810130000000    -0.560039   
O337     O      0.786560000000     0.499040000000     0.797420000000    -0.556958   
O338     O      0.791350000000     0.004710000000     0.706480000000    -0.550619   
O339     O      0.787770000000     0.047220000000     0.754050000000    -0.552921   
O340     O      0.790210000000     0.456640000000     0.749710000000    -0.556032   
O341     O      0.736540000000     0.455650000000     0.751640000000    -0.557311   
O342     O      0.734610000000     0.046230000000     0.746500000000    -0.551162   
O343     O      0.738070000000     0.497700000000     0.703740000000    -0.557993   
O344     O      0.733060000000     0.003950000000     0.794570000000    -0.550974   
O345     O      0.732130000000     0.253180000000     0.814090000000    -0.554576   
O346     O      0.737210000000     0.254510000000     0.722830000000    -0.554793   
O347     O      0.732800000000     0.207550000000     0.767710000000    -0.55331    
O348     O      0.736510000000     0.298180000000     0.769390000000    -0.560714   
O349     O      0.790130000000     0.295890000000     0.771630000000    -0.553889   
O350     O      0.786350000000     0.205240000000     0.771200000000    -0.560075   
O351     O      0.790750000000     0.249910000000     0.725680000000    -0.554704   
O352     O      0.785760000000     0.249540000000     0.816930000000    -0.555479   
O353     O      0.021400000000     0.032730000000     0.959920000000    -0.546964   
O354     O      0.506180000000     0.046340000000     0.548980000000    -0.551223   
O355     O      0.557840000000     0.038320000000     0.012310000000    -0.556778   
O356     O      0.967920000000     0.041010000000     0.496460000000    -0.550498   
O357     O      0.964790000000     0.488370000000     0.004100000000    -0.561311   
O358     O      0.555000000000     0.485530000000     0.519050000000    -0.554904   
O359     O      0.001650000000     0.493620000000     0.556180000000    -0.557344   
O360     O      0.516260000000     0.480100000000     0.967210000000    -0.559768   
O361     O      0.514960000000     0.223070000000     0.971590000000    -0.559417   
O362     O      0.006900000000     0.234070000000     0.561780000000    -0.558531   
O363     O      0.966490000000     0.231180000000     0.012590000000    -0.56448    
O364     O      0.557230000000     0.225690000000     0.520890000000    -0.556367   
O365     O      0.560890000000     0.278540000000     0.015250000000    -0.562403   
O366     O      0.969950000000     0.284020000000     0.506730000000    -0.553848   
O367     O      0.512230000000     0.286880000000     0.555810000000    -0.562244   
O368     O      0.020570000000     0.275890000000     0.965880000000    -0.560755   
O369     O      0.759660000000     0.041760000000     0.955540000000    -0.552096   
O370     O      0.758950000000     0.042560000000     0.546710000000    -0.553092   
O371     O      0.805050000000     0.043430000000     0.002100000000    -0.550761   
O372     O      0.713590000000     0.040690000000     0.500300000000    -0.551774   
O373     O      0.715270000000     0.487610000000     0.996220000000    -0.557924   
O374     O      0.805900000000     0.490420000000     0.507230000000    -0.55951    
O375     O      0.754390000000     0.489380000000     0.546790000000    -0.557997   
O376     O      0.766860000000     0.488880000000     0.956390000000    -0.556557   
O377     O      0.749760000000     0.275260000000     0.973270000000    -0.553341   
O378     O      0.768990000000     0.286210000000     0.562040000000    -0.554927   
O379     O      0.804660000000     0.283970000000     0.007180000000    -0.554358   
O380     O      0.715900000000     0.277790000000     0.527860000000    -0.563063   
O381     O      0.720580000000     0.224990000000     0.033230000000    -0.55402    
O382     O      0.809470000000     0.231180000000     0.512590000000    -0.561598   
O383     O      0.775560000000     0.233490000000     0.567260000000    -0.55472    
O384     O      0.756310000000     0.222570000000     0.978680000000    -0.558244   
O385     O      0.987860000000     0.503960000000     0.304390000000    -0.557135   
O386     O      0.982800000000     0.012630000000     0.213670000000    -0.559912   
O387     O      0.985820000000     0.964040000000     0.254350000000    -0.550472   
O388     O      0.984860000000     0.554110000000     0.263840000000    -0.55745    
O389     O      0.538490000000     0.555360000000     0.260960000000    -0.56231    
O390     O      0.539470000000     0.965220000000     0.251790000000    -0.54491    
O391     O      0.536480000000     0.515460000000     0.210880000000    -0.556998   
O392     O      0.541540000000     0.007050000000     0.301600000000    -0.559176   
O393     O      0.538270000000     0.760150000000     0.310560000000    -0.561      
O394     O      0.539160000000     0.763230000000     0.219520000000    -0.560767   
O395     O      0.538490000000     0.806180000000     0.266790000000    -0.563025   
O396     O      0.538890000000     0.715680000000     0.263090000000    -0.558122   
O397     O      0.985170000000     0.715060000000     0.262840000000    -0.563216   
O398     O      0.984780000000     0.805590000000     0.266150000000    -0.5572     
O399     O      0.985370000000     0.760740000000     0.219080000000    -0.560699   
O400     O      0.984480000000     0.758000000000     0.310130000000    -0.560048   
O401     O      0.786560000000     0.999030000000     0.297420000000    -0.53029    
O402     O      0.791350000000     0.504710000000     0.206480000000    -0.557396   
O403     O      0.787770000000     0.547220000000     0.254050000000    -0.557214   
O404     O      0.790210000000     0.956640000000     0.249710000000    -0.542641   
O405     O      0.736540000000     0.955640000000     0.251640000000    -0.54382    
O406     O      0.734610000000     0.546220000000     0.246500000000    -0.555791   
O407     O      0.738070000000     0.997700000000     0.203740000000    -0.531284   
O408     O      0.733060000000     0.503950000000     0.294570000000    -0.55794    
O409     O      0.732130000000     0.753180000000     0.314090000000    -0.554675   
O410     O      0.737210000000     0.754510000000     0.222830000000    -0.554693   
O411     O      0.732800000000     0.707550000000     0.267720000000    -0.553365   
O412     O      0.736510000000     0.798180000000     0.269400000000    -0.56064    
O413     O      0.790130000000     0.795890000000     0.271630000000    -0.553775   
O414     O      0.786350000000     0.705240000000     0.271200000000    -0.560074   
O415     O      0.790750000000     0.749910000000     0.225670000000    -0.554562   
O416     O      0.785760000000     0.749550000000     0.316930000000    -0.555413   
O417     O      0.021400000000     0.532730000000     0.459920000000    -0.55515    
O418     O      0.506180000000     0.546340000000     0.048980000000    -0.557178   
O419     O      0.557840000000     0.538320000000     0.512310000000    -0.56246    
O420     O      0.967920000000     0.541010000000     0.996460000000    -0.555744   
O421     O      0.964790000000     0.988370000000     0.504100000000    -0.548324   
O422     O      0.555000000000     0.985530000000     0.019050000000    -0.541683   
O423     O      0.001650000000     0.993620000000     0.056180000000    -0.543022   
O424     O      0.516260000000     0.980090000000     0.467210000000    -0.544133   
O425     O      0.514960000000     0.723070000000     0.471590000000    -0.559629   
O426     O      0.006900000000     0.734070000000     0.061780000000    -0.558606   
O427     O      0.966490000000     0.731180000000     0.512590000000    -0.564541   
O428     O      0.557230000000     0.725690000000     0.020890000000    -0.556457   
O429     O      0.560890000000     0.778540000000     0.515250000000    -0.562411   
O430     O      0.969950000000     0.784020000000     0.006730000000    -0.553885   
O431     O      0.512230000000     0.786870000000     0.055810000000    -0.56239    
O432     O      0.020570000000     0.775890000000     0.465880000000    -0.560898   
O433     O      0.759660000000     0.541760000000     0.455540000000    -0.557678   
O434     O      0.758950000000     0.542560000000     0.046710000000    -0.558531   
O435     O      0.805050000000     0.543430000000     0.502100000000    -0.556042   
O436     O      0.713590000000     0.540690000000     0.000300000000    -0.557316   
O437     O      0.715270000000     0.987610000000     0.496220000000    -0.54526    
O438     O      0.805900000000     0.990420000000     0.007230000000    -0.54661    
O439     O      0.754390000000     0.989380000000     0.046800000000    -0.545263   
O440     O      0.766860000000     0.988880000000     0.456390000000    -0.544187   
O441     O      0.749760000000     0.775260000000     0.473270000000    -0.553338   
O442     O      0.768990000000     0.786210000000     0.062040000000    -0.554836   
O443     O      0.804660000000     0.783960000000     0.507180000000    -0.554527   
O444     O      0.715900000000     0.777800000000     0.027860000000    -0.562786   
O445     O      0.720580000000     0.724980000000     0.533220000000    -0.553889   
O446     O      0.809470000000     0.731180000000     0.012590000000    -0.561692   
O447     O      0.775560000000     0.733490000000     0.067260000000    -0.554694   
O448     O      0.756310000000     0.722570000000     0.478680000000    -0.558541   
O449     O      0.987860000000     0.503960000000     0.804390000000    -0.557119   
O450     O      0.982800000000     0.012630000000     0.713670000000    -0.559919   
O451     O      0.985820000000     0.964040000000     0.754350000000    -0.550465   
O452     O      0.984860000000     0.554110000000     0.763850000000    -0.557424   
O453     O      0.538490000000     0.555360000000     0.760960000000    -0.562292   
O454     O      0.539470000000     0.965220000000     0.751790000000    -0.544909   
O455     O      0.536480000000     0.515460000000     0.710880000000    -0.556998   
O456     O      0.541540000000     0.007050000000     0.801600000000    -0.559177   
O457     O      0.538270000000     0.760150000000     0.810550000000    -0.561134   
O458     O      0.539160000000     0.763230000000     0.719520000000    -0.560825   
O459     O      0.538490000000     0.806180000000     0.766790000000    -0.563065   
O460     O      0.538890000000     0.715680000000     0.763090000000    -0.558162   
O461     O      0.985170000000     0.715060000000     0.762840000000    -0.56321    
O462     O      0.984780000000     0.805590000000     0.766150000000    -0.557194   
O463     O      0.985370000000     0.760740000000     0.719080000000    -0.560698   
O464     O      0.984480000000     0.758000000000     0.810130000000    -0.560012   
O465     O      0.786560000000     0.999030000000     0.797420000000    -0.530322   
O466     O      0.791350000000     0.504710000000     0.706480000000    -0.557399   
O467     O      0.787770000000     0.547220000000     0.754050000000    -0.557216   
O468     O      0.790210000000     0.956640000000     0.749710000000    -0.542642   
O469     O      0.736540000000     0.955640000000     0.751640000000    -0.543821   
O470     O      0.734610000000     0.546220000000     0.746500000000    -0.555793   
O471     O      0.738070000000     0.997700000000     0.703740000000    -0.531285   
O472     O      0.733060000000     0.503950000000     0.794570000000    -0.557973   
O473     O      0.732130000000     0.753180000000     0.814090000000    -0.554572   
O474     O      0.737210000000     0.754510000000     0.722830000000    -0.554791   
O475     O      0.732800000000     0.707550000000     0.767710000000    -0.55335    
O476     O      0.736510000000     0.798180000000     0.769390000000    -0.560625   
O477     O      0.790130000000     0.795890000000     0.771630000000    -0.55381    
O478     O      0.786350000000     0.705240000000     0.771200000000    -0.56011    
O479     O      0.790750000000     0.749910000000     0.725680000000    -0.554696   
O480     O      0.785760000000     0.749550000000     0.816930000000    -0.555485   
O481     O      0.021400000000     0.532730000000     0.959920000000    -0.55511    
O482     O      0.506180000000     0.546340000000     0.548980000000    -0.557386   
O483     O      0.557840000000     0.538320000000     0.012310000000    -0.562399   
O484     O      0.967920000000     0.541010000000     0.496460000000    -0.555866   
O485     O      0.964790000000     0.988370000000     0.004100000000    -0.548591   
O486     O      0.555000000000     0.985530000000     0.519050000000    -0.541677   
O487     O      0.001650000000     0.993620000000     0.556180000000    -0.543062   
O488     O      0.516260000000     0.980090000000     0.967210000000    -0.543979   
O489     O      0.514960000000     0.723070000000     0.971590000000    -0.559528   
O490     O      0.006900000000     0.734070000000     0.561780000000    -0.558652   
O491     O      0.966490000000     0.731180000000     0.012590000000    -0.564537   
O492     O      0.557230000000     0.725690000000     0.520890000000    -0.556458   
O493     O      0.560890000000     0.778540000000     0.015250000000    -0.562411   
O494     O      0.969950000000     0.784020000000     0.506730000000    -0.553862   
O495     O      0.512230000000     0.786870000000     0.555810000000    -0.562435   
O496     O      0.020570000000     0.775890000000     0.965880000000    -0.560779   
O497     O      0.759660000000     0.541760000000     0.955540000000    -0.557346   
O498     O      0.758950000000     0.542560000000     0.546710000000    -0.558362   
O499     O      0.805050000000     0.543430000000     0.002100000000    -0.556061   
O500     O      0.713590000000     0.540690000000     0.500300000000    -0.557081   
O501     O      0.715270000000     0.987610000000     0.996220000000    -0.545077   
O502     O      0.805900000000     0.990420000000     0.507230000000    -0.546688   
O503     O      0.754390000000     0.989380000000     0.546790000000    -0.545426   
O504     O      0.766860000000     0.988880000000     0.956390000000    -0.543909   
O505     O      0.749760000000     0.775260000000     0.973270000000    -0.553221   
O506     O      0.768990000000     0.786210000000     0.562040000000    -0.554877   
O507     O      0.804660000000     0.783960000000     0.007180000000    -0.554531   
O508     O      0.715900000000     0.777800000000     0.527860000000    -0.562814   
O509     O      0.720580000000     0.724980000000     0.033230000000    -0.553835   
O510     O      0.809470000000     0.731180000000     0.512590000000    -0.561704   
O511     O      0.775560000000     0.733490000000     0.567260000000    -0.554754   
O512     O      0.756310000000     0.722570000000     0.978680000000    -0.558444   
V1       V      0.483180000000     0.508790000000     0.259170000000     1.39138    
V2       V      0.041150000000     0.510620000000     0.256120000000     1.39056    
V3       V      0.040860000000     0.261190000000     0.265040000000     1.39549    
V4       V      0.482790000000     0.260030000000     0.264570000000     1.39572    
V5       V      0.291190000000     0.001990000000     0.252060000000     1.35338    
V6       V      0.233350000000     0.000850000000     0.249020000000     1.3544     
V7       V      0.232510000000     0.253260000000     0.268350000000     1.38348    
V8       V      0.290400000000     0.250200000000     0.271440000000     1.38403    
V9       V      0.013290000000     0.041720000000     0.504080000000     1.3671     
V10      V      0.009460000000     0.484800000000     0.012030000000     1.39047    
V11      V      0.511400000000     0.226380000000     0.516970000000     1.39384    
V12      V      0.515910000000     0.283450000000     0.010590000000     1.39451    
V13      V      0.259240000000     0.044310000000     0.501100000000     1.36584    
V14      V      0.260680000000     0.486880000000     0.001640000000     1.38965    
V15      V      0.259780000000     0.282930000000     0.517340000000     1.38502    
V16      V      0.265550000000     0.225950000000     0.023240000000     1.38658    
V17      V      0.483180000000     0.508790000000     0.759170000000     1.39135    
V18      V      0.041150000000     0.510620000000     0.756120000000     1.39056    
V19      V      0.040860000000     0.261190000000     0.765040000000     1.39581    
V20      V      0.482790000000     0.260030000000     0.764570000000     1.39565    
V21      V      0.291190000000     0.001990000000     0.752060000000     1.35339    
V22      V      0.233350000000     0.000850000000     0.749020000000     1.3544     
V23      V      0.232510000000     0.253260000000     0.768340000000     1.38342    
V24      V      0.290400000000     0.250200000000     0.771440000000     1.38435    
V25      V      0.013290000000     0.041720000000     0.004070000000     1.36661    
V26      V      0.009460000000     0.484800000000     0.512030000000     1.39059    
V27      V      0.511400000000     0.226380000000     0.016970000000     1.39361    
V28      V      0.515910000000     0.283450000000     0.510590000000     1.39478    
V29      V      0.259240000000     0.044310000000     0.001110000000     1.36573    
V30      V      0.260680000000     0.486880000000     0.501640000000     1.39045    
V31      V      0.259780000000     0.282930000000     0.017340000000     1.38476    
V32      V      0.265550000000     0.225950000000     0.523240000000     1.38688    
V33      V      0.483180000000     0.008790000000     0.259170000000     1.37523    
V34      V      0.041150000000     0.010620000000     0.256120000000     1.37474    
V35      V      0.040860000000     0.761190000000     0.265040000000     1.39576    
V36      V      0.482790000000     0.760030000000     0.264570000000     1.39557    
V37      V      0.291190000000     0.501990000000     0.252060000000     1.38553    
V38      V      0.233350000000     0.500860000000     0.249020000000     1.3872     
V39      V      0.232510000000     0.753260000000     0.268350000000     1.38342    
V40      V      0.290400000000     0.750200000000     0.271440000000     1.38394    
V41      V      0.013290000000     0.541720000000     0.504080000000     1.38764    
V42      V      0.009460000000     0.984800000000     0.012030000000     1.39886    
V43      V      0.511400000000     0.726370000000     0.516970000000     1.39363    
V44      V      0.515910000000     0.783450000000     0.010590000000     1.395      
V45      V      0.259240000000     0.544310000000     0.501100000000     1.3856     
V46      V      0.260680000000     0.986880000000     0.001640000000     1.3995     
V47      V      0.259780000000     0.782930000000     0.517340000000     1.38541    
V48      V      0.265550000000     0.725940000000     0.023240000000     1.38629    
V49      V      0.483180000000     0.008790000000     0.759170000000     1.37519    
V50      V      0.041150000000     0.010620000000     0.756120000000     1.37474    
V51      V      0.040860000000     0.761190000000     0.765040000000     1.39607    
V52      V      0.482790000000     0.760030000000     0.764570000000     1.3955     
V53      V      0.291190000000     0.501990000000     0.752060000000     1.38554    
V54      V      0.233350000000     0.500860000000     0.749020000000     1.3872     
V55      V      0.232510000000     0.753260000000     0.768340000000     1.38335    
V56      V      0.290400000000     0.750200000000     0.771440000000     1.38426    
V57      V      0.013290000000     0.541720000000     0.004070000000     1.38715    
V58      V      0.009460000000     0.984800000000     0.512030000000     1.39899    
V59      V      0.511400000000     0.726370000000     0.016970000000     1.3934     
V60      V      0.515910000000     0.783450000000     0.510590000000     1.39528    
V61      V      0.259240000000     0.544310000000     0.001110000000     1.38548    
V62      V      0.260680000000     0.986880000000     0.501640000000     1.4003     
V63      V      0.259780000000     0.782930000000     0.017340000000     1.38514    
V64      V      0.265550000000     0.725940000000     0.523240000000     1.38659    
V65      V      0.983180000000     0.508790000000     0.259170000000     1.39152    
V66      V      0.541150000000     0.510620000000     0.256120000000     1.39084    
V67      V      0.540860000000     0.261190000000     0.265040000000     1.39576    
V68      V      0.982790000000     0.260030000000     0.264570000000     1.39585    
V69      V      0.791190000000     0.001990000000     0.252060000000     1.35321    
V70      V      0.733360000000     0.000850000000     0.249020000000     1.35424    
V71      V      0.732510000000     0.253260000000     0.268350000000     1.38353    
V72      V      0.790400000000     0.250200000000     0.271440000000     1.38398    
V73      V      0.513290000000     0.041720000000     0.504080000000     1.367      
V74      V      0.509460000000     0.484800000000     0.012030000000     1.39077    
V75      V      0.011390000000     0.226380000000     0.516970000000     1.39367    
V76      V      0.015910000000     0.283450000000     0.010590000000     1.39431    
V77      V      0.759240000000     0.044310000000     0.501100000000     1.36584    
V78      V      0.760680000000     0.486880000000     0.001640000000     1.38964    
V79      V      0.759780000000     0.282930000000     0.517340000000     1.38502    
V80      V      0.765550000000     0.225950000000     0.023240000000     1.38657    
V81      V      0.983180000000     0.508790000000     0.759170000000     1.39148    
V82      V      0.541150000000     0.510620000000     0.756120000000     1.39083    
V83      V      0.540860000000     0.261190000000     0.765040000000     1.39607    
V84      V      0.982790000000     0.260030000000     0.764570000000     1.39578    
V85      V      0.791190000000     0.001990000000     0.752060000000     1.35321    
V86      V      0.733360000000     0.000850000000     0.749020000000     1.35424    
V87      V      0.732510000000     0.253260000000     0.768340000000     1.38346    
V88      V      0.790400000000     0.250200000000     0.771440000000     1.3843     
V89      V      0.513290000000     0.041720000000     0.004070000000     1.36651    
V90      V      0.509460000000     0.484800000000     0.512030000000     1.3909     
V91      V      0.011390000000     0.226380000000     0.016970000000     1.39343    
V92      V      0.015910000000     0.283450000000     0.510590000000     1.39458    
V93      V      0.759240000000     0.044310000000     0.001110000000     1.36572    
V94      V      0.760680000000     0.486880000000     0.501640000000     1.39044    
V95      V      0.759780000000     0.282930000000     0.017340000000     1.38476    
V96      V      0.765550000000     0.225950000000     0.523240000000     1.38688    
V97      V      0.983180000000     0.008790000000     0.259170000000     1.37536    
V98      V      0.541150000000     0.010620000000     0.256120000000     1.37502    
V99      V      0.540860000000     0.761190000000     0.265040000000     1.39603    
V100     V      0.982790000000     0.760030000000     0.264570000000     1.3957     
V101     V      0.791190000000     0.501990000000     0.252060000000     1.38535    
V102     V      0.733360000000     0.500860000000     0.249020000000     1.38704    
V103     V      0.732510000000     0.753260000000     0.268350000000     1.38346    
V104     V      0.790400000000     0.750200000000     0.271440000000     1.38389    
V105     V      0.513290000000     0.541720000000     0.504080000000     1.38754    
V106     V      0.509460000000     0.984800000000     0.012030000000     1.39916    
V107     V      0.011390000000     0.726370000000     0.516970000000     1.39346    
V108     V      0.015910000000     0.783450000000     0.010590000000     1.39481    
V109     V      0.759240000000     0.544310000000     0.501100000000     1.38559    
V110     V      0.760680000000     0.986880000000     0.001640000000     1.3995     
V111     V      0.759780000000     0.782930000000     0.517340000000     1.3854     
V112     V      0.765550000000     0.725940000000     0.023240000000     1.38629    
V113     V      0.983180000000     0.008790000000     0.759170000000     1.37532    
V114     V      0.541150000000     0.010620000000     0.756120000000     1.37501    
V115     V      0.540860000000     0.761190000000     0.765040000000     1.39634    
V116     V      0.982790000000     0.760030000000     0.764570000000     1.39563    
V117     V      0.791190000000     0.501990000000     0.752060000000     1.38536    
V118     V      0.733360000000     0.500860000000     0.749020000000     1.38705    
V119     V      0.732510000000     0.753260000000     0.768340000000     1.38339    
V120     V      0.790400000000     0.750200000000     0.771440000000     1.38421    
V121     V      0.513290000000     0.541720000000     0.004070000000     1.38705    
V122     V      0.509460000000     0.984800000000     0.512030000000     1.39929    
V123     V      0.011390000000     0.726370000000     0.016970000000     1.39322    
V124     V      0.015910000000     0.783450000000     0.510590000000     1.39508    
V125     V      0.759240000000     0.544310000000     0.001110000000     1.38548    
V126     V      0.760680000000     0.986880000000     0.501640000000     1.40029    
V127     V      0.759780000000     0.782930000000     0.017340000000     1.38514    
V128     V      0.765550000000     0.725940000000     0.523240000000     1.38659    


