data_structure

_audit_creation_method RASPA-1.0
_audit_creation_date 2023-5-19
_audit_author_name 'Poobodin Mano'

_cell_length_a    41.2729
_cell_length_b    41.99
_cell_length_c    41.4196
_cell_angle_alpha 90
_cell_angle_beta  90
_cell_angle_gamma 90
_cell_volume      71782.2

_symmetry_cell_setting          triclinic
_symmetry_space_group_name_Hall 'P 1'
_symmetry_space_group_name_H-M  'P 1'
_symmetry_Int_Tables_number     1

_symmetry_equiv_pos_as_xyz 'x,y,z'

loop_
_atom_site_label
_atom_site_type_symbol
_atom_site_fract_x
_atom_site_fract_y
_atom_site_fract_z
_atom_site_charge
Br1      Br     0.419500000000     0.293380000000     0.450490000000    -0.241119   
Br2      Br     0.098440000000     0.308550000000     0.464740000000    -0.211314   
Br3      Br     0.224680000000     0.417740000000     0.455250000000    -0.245526   
Br4      Br     0.183510000000     0.116920000000     0.541020000000    -0.238122   
Br5      Br     0.332310000000     0.032430000000     0.359030000000    -0.235157   
Br6      Br     0.326980000000     0.474830000000     0.177440000000    -0.244638   
Br7      Br     0.034130000000     0.317350000000     0.396670000000    -0.205174   
Br8      Br     0.492400000000     0.189080000000     0.171520000000    -0.246619   
Br9      Br     0.103070000000     0.068540000000     0.291700000000    -0.24429    
Br10     Br     0.435340000000     0.436900000000     0.280550000000    -0.23656    
Br11     Br     0.041320000000     0.385780000000     0.190930000000    -0.240887   
Br12     Br     0.452720000000     0.090790000000     0.282320000000    -0.237997   
Br13     Br     0.419500000000     0.293380000000     0.950490000000    -0.241064   
Br14     Br     0.098440000000     0.308550000000     0.964740000000    -0.21125    
Br15     Br     0.224680000000     0.417740000000     0.955250000000    -0.245473   
Br16     Br     0.183510000000     0.116920000000     0.041020000000    -0.238152   
Br17     Br     0.332310000000     0.032430000000     0.859030000000    -0.235138   
Br18     Br     0.326980000000     0.474830000000     0.677450000000    -0.24462    
Br19     Br     0.034130000000     0.317350000000     0.896670000000    -0.205148   
Br20     Br     0.492400000000     0.189080000000     0.671520000000    -0.246621   
Br21     Br     0.103070000000     0.068540000000     0.791700000000    -0.244283   
Br22     Br     0.435340000000     0.436900000000     0.780550000000    -0.236561   
Br23     Br     0.041320000000     0.385780000000     0.690930000000    -0.240872   
Br24     Br     0.452720000000     0.090790000000     0.782320000000    -0.237991   
Br25     Br     0.419500000000     0.793380000000     0.450490000000    -0.240766   
Br26     Br     0.098440000000     0.808550000000     0.464740000000    -0.210816   
Br27     Br     0.224680000000     0.917740000000     0.455250000000    -0.243588   
Br28     Br     0.183510000000     0.616920000000     0.541020000000    -0.237537   
Br29     Br     0.332310000000     0.532430000000     0.359030000000    -0.23314    
Br30     Br     0.326980000000     0.974830000000     0.177440000000    -0.241565   
Br31     Br     0.034130000000     0.817350000000     0.396670000000    -0.204582   
Br32     Br     0.492400000000     0.689080000000     0.171520000000    -0.246472   
Br33     Br     0.103070000000     0.568540000000     0.291700000000    -0.243614   
Br34     Br     0.435340000000     0.936900000000     0.280550000000    -0.235445   
Br35     Br     0.041320000000     0.885780000000     0.190930000000    -0.239552   
Br36     Br     0.452720000000     0.590790000000     0.282320000000    -0.236713   
Br37     Br     0.419500000000     0.793380000000     0.950490000000    -0.240711   
Br38     Br     0.098440000000     0.808550000000     0.964740000000    -0.210753   
Br39     Br     0.224680000000     0.917740000000     0.955250000000    -0.243535   
Br40     Br     0.183510000000     0.616920000000     0.041020000000    -0.237567   
Br41     Br     0.332310000000     0.532430000000     0.859030000000    -0.233121   
Br42     Br     0.326980000000     0.974830000000     0.677450000000    -0.241546   
Br43     Br     0.034130000000     0.817350000000     0.896670000000    -0.204556   
Br44     Br     0.492400000000     0.689080000000     0.671520000000    -0.246474   
Br45     Br     0.103070000000     0.568540000000     0.791700000000    -0.243606   
Br46     Br     0.435340000000     0.936900000000     0.780550000000    -0.235447   
Br47     Br     0.041320000000     0.885780000000     0.690930000000    -0.239537   
Br48     Br     0.452720000000     0.590790000000     0.782320000000    -0.236707   
Br49     Br     0.919500000000     0.293380000000     0.450490000000    -0.241073   
Br50     Br     0.598440000000     0.308550000000     0.464740000000    -0.211304   
Br51     Br     0.724680000000     0.417740000000     0.455250000000    -0.245524   
Br52     Br     0.683510000000     0.116920000000     0.541020000000    -0.238115   
Br53     Br     0.832310000000     0.032430000000     0.359030000000    -0.235151   
Br54     Br     0.826980000000     0.474830000000     0.177440000000    -0.244629   
Br55     Br     0.534130000000     0.317350000000     0.396670000000    -0.205151   
Br56     Br     0.992400000000     0.189080000000     0.171520000000    -0.246429   
Br57     Br     0.603070000000     0.068540000000     0.291700000000    -0.244283   
Br58     Br     0.935340000000     0.436900000000     0.280550000000    -0.236477   
Br59     Br     0.541320000000     0.385780000000     0.190930000000    -0.240872   
Br60     Br     0.952720000000     0.090790000000     0.282320000000    -0.237928   
Br61     Br     0.919500000000     0.293380000000     0.950490000000    -0.241019   
Br62     Br     0.598440000000     0.308550000000     0.964740000000    -0.211241   
Br63     Br     0.724680000000     0.417740000000     0.955250000000    -0.245471   
Br64     Br     0.683510000000     0.116920000000     0.041020000000    -0.238144   
Br65     Br     0.832310000000     0.032430000000     0.859030000000    -0.235131   
Br66     Br     0.826980000000     0.474830000000     0.677450000000    -0.244611   
Br67     Br     0.534130000000     0.317350000000     0.896670000000    -0.205125   
Br68     Br     0.992400000000     0.189080000000     0.671520000000    -0.246432   
Br69     Br     0.603070000000     0.068540000000     0.791700000000    -0.244276   
Br70     Br     0.935340000000     0.436900000000     0.780550000000    -0.236479   
Br71     Br     0.541320000000     0.385780000000     0.690930000000    -0.240858   
Br72     Br     0.952720000000     0.090790000000     0.782320000000    -0.237922   
Br73     Br     0.919500000000     0.793380000000     0.450490000000    -0.24072    
Br74     Br     0.598440000000     0.808550000000     0.464740000000    -0.210806   
Br75     Br     0.724680000000     0.917740000000     0.455250000000    -0.243586   
Br76     Br     0.683510000000     0.616920000000     0.541020000000    -0.237529   
Br77     Br     0.832310000000     0.532430000000     0.359030000000    -0.233134   
Br78     Br     0.826980000000     0.974830000000     0.177440000000    -0.241558   
Br79     Br     0.534130000000     0.817350000000     0.396670000000    -0.204559   
Br80     Br     0.992400000000     0.689080000000     0.171520000000    -0.246282   
Br81     Br     0.603070000000     0.568540000000     0.291700000000    -0.243607   
Br82     Br     0.935340000000     0.936900000000     0.280550000000    -0.235363   
Br83     Br     0.541320000000     0.885780000000     0.190930000000    -0.239537   
Br84     Br     0.952720000000     0.590790000000     0.282320000000    -0.236645   
Br85     Br     0.919500000000     0.793380000000     0.950490000000    -0.240666   
Br86     Br     0.598440000000     0.808550000000     0.964740000000    -0.210743   
Br87     Br     0.724680000000     0.917740000000     0.955250000000    -0.243533   
Br88     Br     0.683510000000     0.616920000000     0.041020000000    -0.237559   
Br89     Br     0.832310000000     0.532430000000     0.859030000000    -0.233114   
Br90     Br     0.826980000000     0.974830000000     0.677450000000    -0.241538   
Br91     Br     0.534130000000     0.817350000000     0.896670000000    -0.204533   
Br92     Br     0.992400000000     0.689080000000     0.671520000000    -0.246285   
Br93     Br     0.603070000000     0.568540000000     0.791700000000    -0.243599   
Br94     Br     0.935340000000     0.936900000000     0.780550000000    -0.235365   
Br95     Br     0.541320000000     0.885780000000     0.690930000000    -0.239523   
Br96     Br     0.952720000000     0.590790000000     0.782320000000    -0.236638   
C1       C      0.513100000000     0.064520000000     0.244320000000     0.489678   
C2       C      0.523720000000     0.444710000000     0.249720000000     0.484349   
C3       C      0.457930000000     0.498790000000     0.245340000000     0.492615   
C4       C      0.079620000000     0.510690000000     0.248530000000     0.485872   
C5       C      0.024950000000     0.191300000000     0.261460000000     0.478087   
C6       C      0.024500000000     0.311670000000     0.258030000000     0.475358   
C7       C      0.527600000000     0.249440000000     0.199070000000     0.489551   
C8       C      0.521880000000     0.252770000000     0.320720000000     0.476422   
C9       C      0.329690000000     0.005140000000     0.267790000000     0.476109   
C10      C      0.207360000000     0.000590000000     0.271620000000     0.457491   
C11      C      0.266840000000     0.508360000000     0.209080000000     0.486561   
C12      C      0.271660000000     0.497630000000     0.330360000000     0.488389   
C13      C      0.251620000000     0.999620000000     0.080870000000     0.48893    
C14      C      0.257010000000     0.009520000000     0.459160000000     0.475905   
C15      C      0.249280000000     0.064920000000     0.524120000000     0.480361   
C16      C      0.259260000000     0.445220000000     0.515720000000     0.490533   
C17      C      0.003080000000     0.266140000000     0.076690000000     0.474127   
C18      C      0.014700000000     0.259110000000     0.455330000000     0.487575   
C19      C      0.069800000000     0.266660000000     0.520930000000     0.487269   
C20      C      0.448080000000     0.258110000000     0.510350000000     0.489529   
C21      C      0.249120000000     0.197740000000     0.521010000000     0.475469   
C22      C      0.270010000000     0.316030000000     0.510040000000     0.47544    
C23      C      0.200270000000     0.269490000000     0.025730000000     0.476339   
C24      C      0.318510000000     0.245330000000     0.005240000000     0.475706   
C25      C      0.369540000000     0.219200000000     0.021260000000    -0.00739122 
C26      C      0.367470000000     0.255040000000     0.472870000000    -0.0400744  
C27      C      0.398700000000     0.237430000000     0.034290000000    -0.00591655 
C28      C      0.395370000000     0.275170000000     0.486650000000     0.116104   
C29      C      0.150410000000     0.267430000000     0.058780000000    -0.00986457 
C30      C      0.151870000000     0.298300000000     0.507030000000    -0.038215   
C31      C      0.120090000000     0.249660000000     0.046930000000    -0.00591159 
C32      C      0.121760000000     0.280990000000     0.494940000000     0.112104   
C33      C      0.295890000000     0.365970000000     0.028900000000    -0.00959344 
C34      C      0.260700000000     0.365580000000     0.479570000000    -0.0412505  
C35      C      0.279420000000     0.396640000000     0.040310000000    -0.00586601 
C36      C      0.241330000000     0.393940000000     0.492370000000     0.117584   
C37      C      0.261250000000     0.148730000000     0.050930000000    -0.00999768 
C38      C      0.229210000000     0.147100000000     0.998380000000    -0.0358845  
C39      C      0.273230000000     0.115920000000     0.540260000000     0.000698581
C40      C      0.219180000000     0.113820000000     0.510450000000     0.118055   
C41      C      0.232800000000     0.997950000000     0.405810000000     0.00411316 
C42      C      0.284910000000     0.028970000000     0.409950000000    -0.0384613  
C43      C      0.248140000000     0.476480000000     0.380090000000    -0.00521771 
C44      C      0.299360000000     0.508580000000     0.382900000000     0.115912   
C45      C      0.225090000000     0.009150000000     0.133640000000    -0.0248346  
C46      C      0.276330000000     0.476860000000     0.129830000000    -0.0406707  
C47      C      0.240760000000     0.029650000000     0.160300000000    -0.00318739 
C48      C      0.292070000000     0.497760000000     0.155420000000     0.117421   
C49      C      0.045480000000     0.238020000000     0.373260000000    -0.00930475 
C50      C      0.992800000000     0.269390000000     0.369520000000    -0.0345588  
C51      C      0.532700000000     0.229620000000     0.407080000000     0.00158176 
C52      C      0.503220000000     0.282770000000     0.402310000000     0.116393   
C53      C      0.018790000000     0.291620000000     0.127980000000    -0.0122483  
C54      C      0.484910000000     0.241910000000     0.127700000000    -0.0401229  
C55      C      0.044610000000     0.274360000000     0.148440000000    -0.00636076 
C56      C      0.510850000000     0.224610000000     0.147090000000     0.118918   
C57      C      0.156660000000     0.475010000000     0.253280000000    -0.0111657  
C58      C      0.154840000000     0.022680000000     0.290090000000    -0.048519   
C59      C      0.132610000000     0.491400000000     0.230440000000    -0.00664023 
C60      C      0.130020000000     0.038340000000     0.267760000000     0.118919   
C61      C      0.379970000000     0.032740000000     0.251310000000    -0.00921251 
C62      C      0.382310000000     0.481370000000     0.282830000000    -0.0394791  
C63      C      0.405400000000     0.019560000000     0.227720000000    -0.0090475  
C64      C      0.407820000000     0.468670000000     0.259460000000     0.117897   
C65      C      0.050370000000     0.362640000000     0.272100000000    -0.00834258 
C66      C      0.998260000000     0.360880000000     0.239220000000    -0.0374785  
C67      C      0.538980000000     0.396570000000     0.279980000000    -0.000315938
C68      C      0.510290000000     0.392810000000     0.225600000000     0.121336   
C69      C      0.050590000000     0.140290000000     0.246200000000    -0.00975632 
C70      C      0.499830000000     0.141130000000     0.280070000000    -0.0398644  
C71      C      0.035200000000     0.114920000000     0.224300000000    -0.00491935 
C72      C      0.485020000000     0.115490000000     0.258500000000     0.117911   
C73      C      0.513100000000     0.064520000000     0.744320000000     0.489683   
C74      C      0.523720000000     0.444710000000     0.749720000000     0.484358   
C75      C      0.457930000000     0.498790000000     0.745340000000     0.492928   
C76      C      0.079620000000     0.510690000000     0.748530000000     0.485876   
C77      C      0.024950000000     0.191300000000     0.761460000000     0.478088   
C78      C      0.024500000000     0.311670000000     0.758030000000     0.475357   
C79      C      0.527600000000     0.249440000000     0.699070000000     0.489551   
C80      C      0.521880000000     0.252770000000     0.820720000000     0.476421   
C81      C      0.329690000000     0.005140000000     0.767790000000     0.47611    
C82      C      0.207360000000     0.000590000000     0.771620000000     0.45749    
C83      C      0.266840000000     0.508360000000     0.709080000000     0.48656    
C84      C      0.271660000000     0.497630000000     0.830360000000     0.488388   
C85      C      0.251620000000     0.999620000000     0.580870000000     0.488944   
C86      C      0.257010000000     0.009520000000     0.959160000000     0.475876   
C87      C      0.249280000000     0.064920000000     0.024120000000     0.480316   
C88      C      0.259260000000     0.445220000000     0.015720000000     0.490502   
C89      C      0.003080000000     0.266140000000     0.576690000000     0.474142   
C90      C      0.014700000000     0.259110000000     0.955330000000     0.487543   
C91      C      0.069800000000     0.266660000000     0.020930000000     0.487238   
C92      C      0.448080000000     0.258110000000     0.010350000000     0.4895     
C93      C      0.249120000000     0.197740000000     0.021010000000     0.475257   
C94      C      0.270010000000     0.316030000000     0.010040000000     0.475528   
C95      C      0.200270000000     0.269490000000     0.525730000000     0.476557   
C96      C      0.318510000000     0.245330000000     0.505240000000     0.476076   
C97      C      0.369540000000     0.219200000000     0.521260000000    -0.0072597  
C98      C      0.367470000000     0.255040000000     0.972870000000    -0.0401556  
C99      C      0.398700000000     0.237430000000     0.534290000000    -0.00594135 
C100     C      0.395370000000     0.275170000000     0.986650000000     0.116428   
C101     C      0.150410000000     0.267430000000     0.558780000000    -0.00977349 
C102     C      0.151870000000     0.298300000000     0.007030000000    -0.0385888  
C103     C      0.120090000000     0.249660000000     0.546930000000    -0.00594843 
C104     C      0.121760000000     0.280990000000     0.994940000000     0.112423   
C105     C      0.295890000000     0.365970000000     0.528900000000    -0.00959051 
C106     C      0.260700000000     0.365580000000     0.979570000000    -0.0411822  
C107     C      0.279420000000     0.396640000000     0.540310000000    -0.00585798 
C108     C      0.241330000000     0.393940000000     0.992370000000     0.117876   
C109     C      0.261250000000     0.148730000000     0.550930000000    -0.00995261 
C110     C      0.229210000000     0.147100000000     0.498380000000    -0.0362338  
C111     C      0.273230000000     0.115920000000     0.040260000000     0.000694361
C112     C      0.219180000000     0.113820000000     0.010450000000     0.117695   
C113     C      0.232800000000     0.997950000000     0.905810000000     0.00410931 
C114     C      0.284910000000     0.028970000000     0.909950000000    -0.0384636  
C115     C      0.248140000000     0.476480000000     0.880090000000    -0.005217   
C116     C      0.299360000000     0.508580000000     0.882900000000     0.115912   
C117     C      0.225090000000     0.009150000000     0.633640000000    -0.0248341  
C118     C      0.276330000000     0.476860000000     0.629830000000    -0.0406647  
C119     C      0.240760000000     0.029650000000     0.660300000000    -0.00318882 
C120     C      0.292070000000     0.497760000000     0.655420000000     0.117395   
C121     C      0.045480000000     0.238020000000     0.873260000000    -0.00930221 
C122     C      0.992800000000     0.269390000000     0.869520000000    -0.0345585  
C123     C      0.532700000000     0.229620000000     0.907080000000     0.00157577 
C124     C      0.503220000000     0.282770000000     0.902310000000     0.116389   
C125     C      0.018790000000     0.291620000000     0.627980000000    -0.0122681  
C126     C      0.484910000000     0.241910000000     0.627700000000    -0.040154   
C127     C      0.044610000000     0.274360000000     0.648440000000    -0.0063549  
C128     C      0.510850000000     0.224610000000     0.647090000000     0.118925   
C129     C      0.156660000000     0.475010000000     0.753280000000    -0.0111665  
C130     C      0.154840000000     0.022680000000     0.790090000000    -0.0485202  
C131     C      0.132610000000     0.491400000000     0.730440000000    -0.00664049 
C132     C      0.130020000000     0.038340000000     0.767760000000     0.118918   
C133     C      0.379970000000     0.032740000000     0.751310000000    -0.00921704 
C134     C      0.382310000000     0.481370000000     0.782830000000    -0.0394829  
C135     C      0.405400000000     0.019560000000     0.727720000000    -0.00903387 
C136     C      0.407820000000     0.468670000000     0.759460000000     0.117904   
C137     C      0.050370000000     0.362640000000     0.772100000000    -0.00834565 
C138     C      0.998260000000     0.360880000000     0.739220000000    -0.0375017  
C139     C      0.538980000000     0.396570000000     0.779980000000    -0.00031524 
C140     C      0.510290000000     0.392810000000     0.725610000000     0.121348   
C141     C      0.050590000000     0.140290000000     0.746200000000    -0.0097288  
C142     C      0.499830000000     0.141130000000     0.780070000000    -0.0398653  
C143     C      0.035200000000     0.114920000000     0.724300000000    -0.00493133 
C144     C      0.485020000000     0.115490000000     0.758500000000     0.11791    
C145     C      0.513100000000     0.564520000000     0.244320000000     0.490505   
C146     C      0.523720000000     0.944720000000     0.249720000000     0.482822   
C147     C      0.457930000000     0.998790000000     0.245340000000     0.499824   
C148     C      0.079620000000     0.010700000000     0.248530000000     0.48476    
C149     C      0.024950000000     0.691300000000     0.261460000000     0.478073   
C150     C      0.024500000000     0.811670000000     0.258030000000     0.475356   
C151     C      0.527600000000     0.749440000000     0.199070000000     0.489534   
C152     C      0.521880000000     0.752770000000     0.320720000000     0.47641    
C153     C      0.329690000000     0.505140000000     0.267790000000     0.484478   
C154     C      0.207360000000     0.500590000000     0.271620000000     0.47159    
C155     C      0.266840000000     0.008360000000     0.209080000000     0.478493   
C156     C      0.271660000000     0.997630000000     0.330360000000     0.496779   
C157     C      0.251620000000     0.499620000000     0.080870000000     0.473412   
C158     C      0.257010000000     0.509520000000     0.459160000000     0.47668    
C159     C      0.249280000000     0.564920000000     0.524120000000     0.480946   
C160     C      0.259260000000     0.945220000000     0.515720000000     0.489303   
C161     C      0.003080000000     0.766140000000     0.076690000000     0.474098   
C162     C      0.014700000000     0.759110000000     0.455330000000     0.487827   
C163     C      0.069800000000     0.766660000000     0.520930000000     0.486932   
C164     C      0.448080000000     0.758120000000     0.510350000000     0.489493   
C165     C      0.249120000000     0.697740000000     0.521010000000     0.47545    
C166     C      0.270010000000     0.816030000000     0.510040000000     0.475452   
C167     C      0.200270000000     0.769480000000     0.025730000000     0.476351   
C168     C      0.318510000000     0.745330000000     0.005240000000     0.4757     
C169     C      0.369540000000     0.719200000000     0.021260000000    -0.00741723 
C170     C      0.367470000000     0.755040000000     0.472870000000    -0.0400755  
C171     C      0.398700000000     0.737430000000     0.034290000000    -0.00591755 
C172     C      0.395370000000     0.775170000000     0.486650000000     0.116057   
C173     C      0.150410000000     0.767430000000     0.058780000000    -0.00992815 
C174     C      0.151870000000     0.798300000000     0.507030000000    -0.0382558  
C175     C      0.120090000000     0.749660000000     0.046930000000    -0.00591    
C176     C      0.121760000000     0.780990000000     0.494940000000     0.112084   
C177     C      0.295890000000     0.865970000000     0.028900000000    -0.00957895 
C178     C      0.260700000000     0.865580000000     0.479570000000    -0.0412004  
C179     C      0.279420000000     0.896640000000     0.040310000000    -0.00593691 
C180     C      0.241330000000     0.893940000000     0.492370000000     0.117458   
C181     C      0.261250000000     0.648730000000     0.050930000000    -0.0100001  
C182     C      0.229210000000     0.647100000000     0.998380000000    -0.0358895  
C183     C      0.273230000000     0.615920000000     0.540260000000     0.000690043
C184     C      0.219180000000     0.613820000000     0.510450000000     0.118018   
C185     C      0.232800000000     0.497950000000     0.405810000000    -0.00993486 
C186     C      0.284910000000     0.528970000000     0.409950000000    -0.0411296  
C187     C      0.248140000000     0.976480000000     0.380090000000    -0.00828128 
C188     C      0.299360000000     0.008580000000     0.382900000000     0.104392   
C189     C      0.225090000000     0.509150000000     0.133640000000    -0.0117013  
C190     C      0.276330000000     0.976860000000     0.129830000000    -0.0426926  
C191     C      0.240760000000     0.529650000000     0.160300000000    -0.00591793 
C192     C      0.292070000000     0.997760000000     0.155420000000     0.128892   
C193     C      0.045480000000     0.738020000000     0.373260000000    -0.00934675 
C194     C      0.992800000000     0.769390000000     0.369520000000    -0.034504   
C195     C      0.532700000000     0.729620000000     0.407080000000     0.0015661  
C196     C      0.503220000000     0.782780000000     0.402310000000     0.116306   
C197     C      0.018790000000     0.791620000000     0.127980000000    -0.012311   
C198     C      0.484910000000     0.741910000000     0.127700000000    -0.0401163  
C199     C      0.044610000000     0.774360000000     0.148440000000    -0.00629376 
C200     C      0.510850000000     0.724610000000     0.147090000000     0.118843   
C201     C      0.156660000000     0.975010000000     0.253280000000    -0.0147252  
C202     C      0.154840000000     0.522680000000     0.290090000000    -0.0425821  
C203     C      0.132610000000     0.991390000000     0.230440000000     0.00755861 
C204     C      0.130020000000     0.538340000000     0.267760000000     0.117768   
C205     C      0.379970000000     0.532740000000     0.251310000000    -0.0094204  
C206     C      0.382310000000     0.981370000000     0.282830000000    -0.034655   
C207     C      0.405400000000     0.519560000000     0.227720000000    -0.00415388 
C208     C      0.407820000000     0.968670000000     0.259460000000     0.117404   
C209     C      0.050370000000     0.862640000000     0.272100000000    -0.00825297 
C210     C      0.998260000000     0.860880000000     0.239220000000    -0.0374307  
C211     C      0.538980000000     0.896570000000     0.279980000000    -0.000538407
C212     C      0.510290000000     0.892810000000     0.225600000000     0.121135   
C213     C      0.050590000000     0.640290000000     0.246200000000    -0.00976906 
C214     C      0.499830000000     0.641130000000     0.280070000000    -0.0399194  
C215     C      0.035200000000     0.614920000000     0.224300000000    -0.00492532 
C216     C      0.485020000000     0.615490000000     0.258500000000     0.117874   
C217     C      0.513100000000     0.564520000000     0.744320000000     0.49051    
C218     C      0.523720000000     0.944720000000     0.749720000000     0.482831   
C219     C      0.457930000000     0.998790000000     0.745340000000     0.500141   
C220     C      0.079620000000     0.010700000000     0.748530000000     0.484764   
C221     C      0.024950000000     0.691300000000     0.761460000000     0.478074   
C222     C      0.024500000000     0.811670000000     0.758030000000     0.475355   
C223     C      0.527600000000     0.749440000000     0.699070000000     0.489533   
C224     C      0.521880000000     0.752770000000     0.820720000000     0.47641    
C225     C      0.329690000000     0.505140000000     0.767790000000     0.484479   
C226     C      0.207360000000     0.500590000000     0.771620000000     0.47159    
C227     C      0.266840000000     0.008360000000     0.709080000000     0.478492   
C228     C      0.271660000000     0.997630000000     0.830360000000     0.496778   
C229     C      0.251620000000     0.499620000000     0.580870000000     0.473426   
C230     C      0.257010000000     0.509520000000     0.959160000000     0.47665    
C231     C      0.249280000000     0.564920000000     0.024120000000     0.480901   
C232     C      0.259260000000     0.945220000000     0.015720000000     0.489273   
C233     C      0.003080000000     0.766140000000     0.576690000000     0.474112   
C234     C      0.014700000000     0.759110000000     0.955330000000     0.487795   
C235     C      0.069800000000     0.766660000000     0.020930000000     0.4869     
C236     C      0.448080000000     0.758120000000     0.010350000000     0.489464   
C237     C      0.249120000000     0.697740000000     0.021010000000     0.475239   
C238     C      0.270010000000     0.816030000000     0.010040000000     0.47554    
C239     C      0.200270000000     0.769480000000     0.525730000000     0.476569   
C240     C      0.318510000000     0.745330000000     0.505240000000     0.476069   
C241     C      0.369540000000     0.719200000000     0.521260000000    -0.00728602 
C242     C      0.367470000000     0.755040000000     0.972870000000    -0.0401566  
C243     C      0.398700000000     0.737430000000     0.534290000000    -0.00594226 
C244     C      0.395370000000     0.775170000000     0.986650000000     0.11638    
C245     C      0.150410000000     0.767430000000     0.558780000000    -0.00983714 
C246     C      0.151870000000     0.798300000000     0.007030000000    -0.0386285  
C247     C      0.120090000000     0.749660000000     0.546930000000    -0.00594681 
C248     C      0.121760000000     0.780990000000     0.994940000000     0.112402   
C249     C      0.295890000000     0.865970000000     0.528900000000    -0.0095761  
C250     C      0.260700000000     0.865580000000     0.979570000000    -0.0411323  
C251     C      0.279420000000     0.896640000000     0.540310000000    -0.00592889 
C252     C      0.241330000000     0.893940000000     0.992370000000     0.117748   
C253     C      0.261250000000     0.648730000000     0.550930000000    -0.00995503 
C254     C      0.229210000000     0.647100000000     0.498380000000    -0.0362388  
C255     C      0.273230000000     0.615920000000     0.040260000000     0.000685827
C256     C      0.219180000000     0.613820000000     0.010450000000     0.117658   
C257     C      0.232800000000     0.497950000000     0.905810000000    -0.00993744 
C258     C      0.284910000000     0.528970000000     0.909950000000    -0.0411317  
C259     C      0.248140000000     0.976480000000     0.880090000000    -0.00828028 
C260     C      0.299360000000     0.008580000000     0.882900000000     0.104393   
C261     C      0.225090000000     0.509150000000     0.633640000000    -0.011701   
C262     C      0.276330000000     0.976860000000     0.629830000000    -0.0426865  
C263     C      0.240760000000     0.529650000000     0.660300000000    -0.00591933 
C264     C      0.292070000000     0.997760000000     0.655420000000     0.128866   
C265     C      0.045480000000     0.738020000000     0.873260000000    -0.00934421 
C266     C      0.992800000000     0.769390000000     0.869520000000    -0.0345037  
C267     C      0.532700000000     0.729620000000     0.907080000000     0.00156012 
C268     C      0.503220000000     0.782780000000     0.902310000000     0.116302   
C269     C      0.018790000000     0.791620000000     0.627980000000    -0.012331   
C270     C      0.484910000000     0.741910000000     0.627700000000    -0.0401474  
C271     C      0.044610000000     0.774360000000     0.648440000000    -0.00628787 
C272     C      0.510850000000     0.724610000000     0.647090000000     0.11885    
C273     C      0.156660000000     0.975010000000     0.753280000000    -0.0147259  
C274     C      0.154840000000     0.522680000000     0.790090000000    -0.0425835  
C275     C      0.132610000000     0.991390000000     0.730440000000     0.00755788 
C276     C      0.130020000000     0.538340000000     0.767760000000     0.117767   
C277     C      0.379970000000     0.532740000000     0.751310000000    -0.00942484 
C278     C      0.382310000000     0.981370000000     0.782830000000    -0.0346591  
C279     C      0.405400000000     0.519560000000     0.727720000000    -0.00414062 
C280     C      0.407820000000     0.968670000000     0.759460000000     0.117412   
C281     C      0.050370000000     0.862640000000     0.772100000000    -0.00825605 
C282     C      0.998260000000     0.860880000000     0.739220000000    -0.0374539  
C283     C      0.538980000000     0.896570000000     0.779980000000    -0.000537688
C284     C      0.510290000000     0.892810000000     0.725610000000     0.121147   
C285     C      0.050590000000     0.640290000000     0.746200000000    -0.00974153 
C286     C      0.499830000000     0.641130000000     0.780070000000    -0.0399203  
C287     C      0.035200000000     0.614920000000     0.724300000000    -0.0049373  
C288     C      0.485020000000     0.615490000000     0.758500000000     0.117873   
C289     C      0.013100000000     0.064520000000     0.244320000000     0.48965    
C290     C      0.023720000000     0.444710000000     0.249720000000     0.484312   
C291     C      0.957930000000     0.498790000000     0.245340000000     0.492589   
C292     C      0.579620000000     0.510690000000     0.248530000000     0.485883   
C293     C      0.524950000000     0.191300000000     0.261460000000     0.478249   
C294     C      0.524490000000     0.311670000000     0.258030000000     0.475522   
C295     C      0.027600000000     0.249440000000     0.199070000000     0.489554   
C296     C      0.021880000000     0.252770000000     0.320720000000     0.476261   
C297     C      0.829700000000     0.005140000000     0.267790000000     0.476034   
C298     C      0.707360000000     0.000590000000     0.271620000000     0.45749    
C299     C      0.766840000000     0.508360000000     0.209080000000     0.486565   
C300     C      0.771660000000     0.497630000000     0.330360000000     0.488389   
C301     C      0.751620000000     0.999620000000     0.080870000000     0.488925   
C302     C      0.757010000000     0.009520000000     0.459160000000     0.475906   
C303     C      0.749290000000     0.064920000000     0.524120000000     0.480366   
C304     C      0.759260000000     0.445220000000     0.515720000000     0.490529   
C305     C      0.503080000000     0.266140000000     0.076690000000     0.474134   
C306     C      0.514700000000     0.259110000000     0.455330000000     0.487563   
C307     C      0.569800000000     0.266660000000     0.520930000000     0.48728    
C308     C      0.948080000000     0.258110000000     0.510350000000     0.489509   
C309     C      0.749120000000     0.197740000000     0.521010000000     0.475468   
C310     C      0.770010000000     0.316030000000     0.510040000000     0.475441   
C311     C      0.700270000000     0.269490000000     0.025730000000     0.476339   
C312     C      0.818510000000     0.245330000000     0.005240000000     0.475706   
C313     C      0.869540000000     0.219200000000     0.021260000000    -0.00738372 
C314     C      0.867470000000     0.255040000000     0.472870000000    -0.0400742  
C315     C      0.898690000000     0.237430000000     0.034290000000    -0.0059314  
C316     C      0.895370000000     0.275170000000     0.486650000000     0.116103   
C317     C      0.650410000000     0.267430000000     0.058780000000    -0.00986469 
C318     C      0.651870000000     0.298300000000     0.507030000000    -0.0382122  
C319     C      0.620090000000     0.249660000000     0.046930000000    -0.00591183 
C320     C      0.621760000000     0.280990000000     0.494940000000     0.112101   
C321     C      0.795890000000     0.365970000000     0.028900000000    -0.00962108 
C322     C      0.760700000000     0.365580000000     0.479570000000    -0.0412151  
C323     C      0.779420000000     0.396640000000     0.040310000000    -0.00583649 
C324     C      0.741320000000     0.393940000000     0.492370000000     0.117554   
C325     C      0.761250000000     0.148730000000     0.050930000000    -0.00999336 
C326     C      0.729210000000     0.147100000000     0.998380000000    -0.0358881  
C327     C      0.773230000000     0.115920000000     0.540260000000     0.000685118
C328     C      0.719180000000     0.113820000000     0.510450000000     0.118063   
C329     C      0.732810000000     0.997950000000     0.405810000000     0.00422803 
C330     C      0.784920000000     0.028970000000     0.409950000000    -0.0385448  
C331     C      0.748140000000     0.476480000000     0.380090000000    -0.00526512 
C332     C      0.799360000000     0.508580000000     0.382900000000     0.115943   
C333     C      0.725090000000     0.009150000000     0.133640000000    -0.0249049  
C334     C      0.776330000000     0.476860000000     0.129830000000    -0.0406748  
C335     C      0.740770000000     0.029650000000     0.160300000000    -0.00308952 
C336     C      0.792070000000     0.497760000000     0.155420000000     0.117423   
C337     C      0.545480000000     0.238020000000     0.373260000000    -0.009294   
C338     C      0.492800000000     0.269390000000     0.369520000000    -0.0348366  
C339     C      0.032700000000     0.229620000000     0.407080000000     0.00159996 
C340     C      0.003220000000     0.282770000000     0.402310000000     0.116109   
C341     C      0.518790000000     0.291620000000     0.127980000000    -0.0123202  
C342     C      0.984910000000     0.241910000000     0.127700000000    -0.0398898  
C343     C      0.544610000000     0.274360000000     0.148440000000    -0.00630152 
C344     C      0.010850000000     0.224610000000     0.147090000000     0.118736   
C345     C      0.656660000000     0.475010000000     0.253280000000    -0.0111629  
C346     C      0.654840000000     0.022680000000     0.290090000000    -0.0485192  
C347     C      0.632610000000     0.491400000000     0.230440000000    -0.00665263 
C348     C      0.630020000000     0.038340000000     0.267760000000     0.118918   
C349     C      0.879970000000     0.032740000000     0.251310000000    -0.00919344 
C350     C      0.882310000000     0.481370000000     0.282830000000    -0.0394713  
C351     C      0.905400000000     0.019560000000     0.227720000000    -0.0090588  
C352     C      0.907810000000     0.468670000000     0.259460000000     0.117846   
C353     C      0.550370000000     0.362640000000     0.272100000000    -0.00833455 
C354     C      0.498260000000     0.360880000000     0.239220000000    -0.0377659  
C355     C      0.038980000000     0.396570000000     0.279980000000    -0.000328094
C356     C      0.010290000000     0.392810000000     0.225600000000     0.121048   
C357     C      0.550590000000     0.140290000000     0.246200000000    -0.00974159 
C358     C      0.999830000000     0.141130000000     0.280070000000    -0.0396087  
C359     C      0.535200000000     0.114920000000     0.224300000000    -0.00492747 
C360     C      0.985020000000     0.115490000000     0.258500000000     0.117958   
C361     C      0.013100000000     0.064520000000     0.744320000000     0.489656   
C362     C      0.023720000000     0.444710000000     0.749720000000     0.484321   
C363     C      0.957930000000     0.498790000000     0.745340000000     0.492902   
C364     C      0.579620000000     0.510690000000     0.748530000000     0.485887   
C365     C      0.524950000000     0.191300000000     0.761460000000     0.47825    
C366     C      0.524490000000     0.311670000000     0.758030000000     0.475521   
C367     C      0.027600000000     0.249440000000     0.699070000000     0.489554   
C368     C      0.021880000000     0.252770000000     0.820720000000     0.476261   
C369     C      0.829700000000     0.005140000000     0.767790000000     0.476035   
C370     C      0.707360000000     0.000590000000     0.771620000000     0.45749    
C371     C      0.766840000000     0.508360000000     0.709080000000     0.486564   
C372     C      0.771660000000     0.497630000000     0.830360000000     0.488389   
C373     C      0.751620000000     0.999620000000     0.580870000000     0.488939   
C374     C      0.757010000000     0.009520000000     0.959160000000     0.475877   
C375     C      0.749290000000     0.064920000000     0.024120000000     0.48032    
C376     C      0.759260000000     0.445220000000     0.015720000000     0.490499   
C377     C      0.503080000000     0.266140000000     0.576690000000     0.474149   
C378     C      0.514700000000     0.259110000000     0.955330000000     0.487531   
C379     C      0.569800000000     0.266660000000     0.020930000000     0.487249   
C380     C      0.948080000000     0.258110000000     0.010350000000     0.489479   
C381     C      0.749120000000     0.197740000000     0.021010000000     0.475257   
C382     C      0.770010000000     0.316030000000     0.010040000000     0.475528   
C383     C      0.700270000000     0.269490000000     0.525730000000     0.476557   
C384     C      0.818510000000     0.245330000000     0.505240000000     0.476076   
C385     C      0.869540000000     0.219200000000     0.521260000000    -0.0072522  
C386     C      0.867470000000     0.255040000000     0.972870000000    -0.0401555  
C387     C      0.898690000000     0.237430000000     0.534290000000    -0.0059562  
C388     C      0.895370000000     0.275170000000     0.986650000000     0.116427   
C389     C      0.650410000000     0.267430000000     0.558780000000    -0.0097736  
C390     C      0.651870000000     0.298300000000     0.007030000000    -0.038586   
C391     C      0.620090000000     0.249660000000     0.546930000000    -0.00594868 
C392     C      0.621760000000     0.280990000000     0.994940000000     0.112419   
C393     C      0.795890000000     0.365970000000     0.528900000000    -0.00961818 
C394     C      0.760700000000     0.365580000000     0.979570000000    -0.0411468  
C395     C      0.779420000000     0.396640000000     0.540310000000    -0.00582846 
C396     C      0.741320000000     0.393940000000     0.992370000000     0.117846   
C397     C      0.761250000000     0.148730000000     0.550930000000    -0.00994828 
C398     C      0.729210000000     0.147100000000     0.498380000000    -0.0362374  
C399     C      0.773230000000     0.115920000000     0.040260000000     0.000680899
C400     C      0.719180000000     0.113820000000     0.010450000000     0.117703   
C401     C      0.732810000000     0.997950000000     0.905810000000     0.00422418 
C402     C      0.784920000000     0.028970000000     0.909950000000    -0.0385471  
C403     C      0.748140000000     0.476480000000     0.880090000000    -0.00526441 
C404     C      0.799360000000     0.508580000000     0.882900000000     0.115943   
C405     C      0.725090000000     0.009150000000     0.633640000000    -0.0249044  
C406     C      0.776330000000     0.476860000000     0.629830000000    -0.0406688  
C407     C      0.740770000000     0.029650000000     0.660300000000    -0.00309095 
C408     C      0.792070000000     0.497760000000     0.655420000000     0.117397   
C409     C      0.545480000000     0.238020000000     0.873260000000    -0.00929146 
C410     C      0.492800000000     0.269390000000     0.869520000000    -0.0348363  
C411     C      0.032700000000     0.229620000000     0.907080000000     0.00159398 
C412     C      0.003220000000     0.282770000000     0.902310000000     0.116106   
C413     C      0.518790000000     0.291620000000     0.627980000000    -0.0123401  
C414     C      0.984910000000     0.241910000000     0.627700000000    -0.0399208  
C415     C      0.544610000000     0.274360000000     0.648440000000    -0.00629566 
C416     C      0.010850000000     0.224610000000     0.647090000000     0.118743   
C417     C      0.656660000000     0.475010000000     0.753280000000    -0.0111638  
C418     C      0.654840000000     0.022680000000     0.790090000000    -0.0485204  
C419     C      0.632610000000     0.491400000000     0.730440000000    -0.00665289 
C420     C      0.630020000000     0.038340000000     0.767760000000     0.118917   
C421     C      0.879970000000     0.032740000000     0.751310000000    -0.00919796 
C422     C      0.882310000000     0.481370000000     0.782830000000    -0.0394751  
C423     C      0.905400000000     0.019560000000     0.727720000000    -0.00904518 
C424     C      0.907810000000     0.468670000000     0.759460000000     0.117853   
C425     C      0.550370000000     0.362640000000     0.772100000000    -0.00833763 
C426     C      0.498260000000     0.360880000000     0.739220000000    -0.0377891  
C427     C      0.038980000000     0.396570000000     0.779980000000    -0.000327399
C428     C      0.010290000000     0.392810000000     0.725610000000     0.12106    
C429     C      0.550590000000     0.140290000000     0.746200000000    -0.00971407 
C430     C      0.999830000000     0.141130000000     0.780070000000    -0.0396096  
C431     C      0.535200000000     0.114920000000     0.724300000000    -0.00493944 
C432     C      0.985020000000     0.115490000000     0.758500000000     0.117957   
C433     C      0.013100000000     0.564520000000     0.244320000000     0.490477   
C434     C      0.023720000000     0.944720000000     0.249720000000     0.482785   
C435     C      0.957930000000     0.998790000000     0.245340000000     0.499797   
C436     C      0.579620000000     0.010700000000     0.248530000000     0.484772   
C437     C      0.524950000000     0.691300000000     0.261460000000     0.478235   
C438     C      0.524490000000     0.811670000000     0.258030000000     0.475519   
C439     C      0.027600000000     0.749440000000     0.199070000000     0.489537   
C440     C      0.021880000000     0.752770000000     0.320720000000     0.47625    
C441     C      0.829700000000     0.505140000000     0.267790000000     0.4844     
C442     C      0.707360000000     0.500590000000     0.271620000000     0.47159    
C443     C      0.766840000000     0.008360000000     0.209080000000     0.478497   
C444     C      0.771660000000     0.997630000000     0.330360000000     0.496779   
C445     C      0.751620000000     0.499620000000     0.080870000000     0.473408   
C446     C      0.757010000000     0.509520000000     0.459160000000     0.47668    
C447     C      0.749290000000     0.564920000000     0.524120000000     0.48095    
C448     C      0.759260000000     0.945220000000     0.515720000000     0.4893     
C449     C      0.503080000000     0.766140000000     0.076690000000     0.474104   
C450     C      0.514700000000     0.759110000000     0.455330000000     0.487815   
C451     C      0.569800000000     0.766660000000     0.520930000000     0.486943   
C452     C      0.948080000000     0.758120000000     0.510350000000     0.489473   
C453     C      0.749120000000     0.697740000000     0.521010000000     0.47545    
C454     C      0.770010000000     0.816030000000     0.510040000000     0.475452   
C455     C      0.700270000000     0.769480000000     0.025730000000     0.476351   
C456     C      0.818510000000     0.745330000000     0.005240000000     0.4757     
C457     C      0.869540000000     0.719200000000     0.021260000000    -0.00740973 
C458     C      0.867470000000     0.755040000000     0.472870000000    -0.0400754  
C459     C      0.898690000000     0.737430000000     0.034290000000    -0.00593239 
C460     C      0.895370000000     0.775170000000     0.486650000000     0.116056   
C461     C      0.650410000000     0.767430000000     0.058780000000    -0.00992826 
C462     C      0.651870000000     0.798300000000     0.507030000000    -0.038253   
C463     C      0.620090000000     0.749660000000     0.046930000000    -0.00591025 
C464     C      0.621760000000     0.780990000000     0.494940000000     0.112081   
C465     C      0.795890000000     0.865970000000     0.028900000000    -0.00960683 
C466     C      0.760700000000     0.865580000000     0.479570000000    -0.041165   
C467     C      0.779420000000     0.896640000000     0.040310000000    -0.00590713 
C468     C      0.741320000000     0.893940000000     0.492370000000     0.117428   
C469     C      0.761250000000     0.648730000000     0.050930000000    -0.00999577 
C470     C      0.729210000000     0.647100000000     0.998380000000    -0.0358931  
C471     C      0.773230000000     0.615920000000     0.540260000000     0.000676571
C472     C      0.719180000000     0.613820000000     0.510450000000     0.118025   
C473     C      0.732810000000     0.497950000000     0.405810000000    -0.00981535 
C474     C      0.784920000000     0.528970000000     0.409950000000    -0.0412143  
C475     C      0.748140000000     0.976480000000     0.380090000000    -0.00832938 
C476     C      0.799360000000     0.008580000000     0.382900000000     0.104423   
C477     C      0.725090000000     0.509150000000     0.133640000000    -0.0117704  
C478     C      0.776330000000     0.976860000000     0.129830000000    -0.0426974  
C479     C      0.740770000000     0.529650000000     0.160300000000    -0.00581892 
C480     C      0.792070000000     0.997760000000     0.155420000000     0.128897   
C481     C      0.545480000000     0.738020000000     0.373260000000    -0.00933596 
C482     C      0.492800000000     0.769390000000     0.369520000000    -0.0347809  
C483     C      0.032700000000     0.729620000000     0.407080000000     0.00158439 
C484     C      0.003220000000     0.782780000000     0.402310000000     0.116023   
C485     C      0.518790000000     0.791620000000     0.127980000000    -0.0123829  
C486     C      0.984910000000     0.741910000000     0.127700000000    -0.0398839  
C487     C      0.544610000000     0.774360000000     0.148440000000    -0.00623454 
C488     C      0.010850000000     0.724610000000     0.147090000000     0.118661   
C489     C      0.656660000000     0.975010000000     0.253280000000    -0.0147231  
C490     C      0.654840000000     0.522680000000     0.290090000000    -0.0425824  
C491     C      0.632610000000     0.991390000000     0.230440000000     0.00754841 
C492     C      0.630020000000     0.538340000000     0.267760000000     0.117767   
C493     C      0.879970000000     0.532740000000     0.251310000000    -0.00940108 
C494     C      0.882310000000     0.981370000000     0.282830000000    -0.0346476  
C495     C      0.905400000000     0.519560000000     0.227720000000    -0.00416575 
C496     C      0.907810000000     0.968670000000     0.259460000000     0.117353   
C497     C      0.550370000000     0.862640000000     0.272100000000    -0.00824491 
C498     C      0.498260000000     0.860880000000     0.239220000000    -0.0377166  
C499     C      0.038980000000     0.896570000000     0.279980000000    -0.000550476
C500     C      0.010290000000     0.892810000000     0.225600000000     0.120849   
C501     C      0.550590000000     0.640290000000     0.246200000000    -0.00975434 
C502     C      0.999830000000     0.641130000000     0.280070000000    -0.039664   
C503     C      0.535200000000     0.614920000000     0.224300000000    -0.00493347 
C504     C      0.985020000000     0.615490000000     0.258500000000     0.117921   
C505     C      0.013100000000     0.564520000000     0.744320000000     0.490483   
C506     C      0.023720000000     0.944720000000     0.749720000000     0.482793   
C507     C      0.957930000000     0.998790000000     0.745340000000     0.500114   
C508     C      0.579620000000     0.010700000000     0.748530000000     0.484776   
C509     C      0.524950000000     0.691300000000     0.761460000000     0.478236   
C510     C      0.524490000000     0.811670000000     0.758030000000     0.475517   
C511     C      0.027600000000     0.749440000000     0.699070000000     0.489536   
C512     C      0.021880000000     0.752770000000     0.820720000000     0.47625    
C513     C      0.829700000000     0.505140000000     0.767790000000     0.4844     
C514     C      0.707360000000     0.500590000000     0.771620000000     0.471589   
C515     C      0.766840000000     0.008360000000     0.709080000000     0.478496   
C516     C      0.771660000000     0.997630000000     0.830360000000     0.496778   
C517     C      0.751620000000     0.499620000000     0.580870000000     0.473422   
C518     C      0.757010000000     0.509520000000     0.959160000000     0.476651   
C519     C      0.749290000000     0.564920000000     0.024120000000     0.480905   
C520     C      0.759260000000     0.945220000000     0.015720000000     0.48927    
C521     C      0.503080000000     0.766140000000     0.576690000000     0.474119   
C522     C      0.514700000000     0.759110000000     0.955330000000     0.487783   
C523     C      0.569800000000     0.766660000000     0.020930000000     0.486911   
C524     C      0.948080000000     0.758120000000     0.010350000000     0.489444   
C525     C      0.749120000000     0.697740000000     0.021010000000     0.475239   
C526     C      0.770010000000     0.816030000000     0.010040000000     0.47554    
C527     C      0.700270000000     0.769480000000     0.525730000000     0.476569   
C528     C      0.818510000000     0.745330000000     0.505240000000     0.476069   
C529     C      0.869540000000     0.719200000000     0.521260000000    -0.00727852 
C530     C      0.867470000000     0.755040000000     0.972870000000    -0.0401565  
C531     C      0.898690000000     0.737430000000     0.534290000000    -0.0059571  
C532     C      0.895370000000     0.775170000000     0.986650000000     0.116379   
C533     C      0.650410000000     0.767430000000     0.558780000000    -0.00983725 
C534     C      0.651870000000     0.798300000000     0.007030000000    -0.0386257  
C535     C      0.620090000000     0.749660000000     0.546930000000    -0.00594706 
C536     C      0.621760000000     0.780990000000     0.994940000000     0.112398   
C537     C      0.795890000000     0.865970000000     0.528900000000    -0.00960401 
C538     C      0.760700000000     0.865580000000     0.979570000000    -0.0410969  
C539     C      0.779420000000     0.896640000000     0.540310000000    -0.00589911 
C540     C      0.741320000000     0.893940000000     0.992370000000     0.117718   
C541     C      0.761250000000     0.648730000000     0.550930000000    -0.0099507  
C542     C      0.729210000000     0.647100000000     0.498380000000    -0.0362424  
C543     C      0.773230000000     0.615920000000     0.040260000000     0.000672356
C544     C      0.719180000000     0.613820000000     0.010450000000     0.117665   
C545     C      0.732810000000     0.497950000000     0.905810000000    -0.00981793 
C546     C      0.784920000000     0.528970000000     0.909950000000    -0.0412164  
C547     C      0.748140000000     0.976480000000     0.880090000000    -0.00832839 
C548     C      0.799360000000     0.008580000000     0.882900000000     0.104424   
C549     C      0.725090000000     0.509150000000     0.633640000000    -0.0117701  
C550     C      0.776330000000     0.976860000000     0.629830000000    -0.0426913  
C551     C      0.740770000000     0.529650000000     0.660300000000    -0.00582033 
C552     C      0.792070000000     0.997760000000     0.655420000000     0.12887    
C553     C      0.545480000000     0.738020000000     0.873260000000    -0.00933341 
C554     C      0.492800000000     0.769390000000     0.869520000000    -0.0347806  
C555     C      0.032700000000     0.729620000000     0.907080000000     0.00157842 
C556     C      0.003220000000     0.782780000000     0.902310000000     0.11602    
C557     C      0.518790000000     0.791620000000     0.627980000000    -0.0124029  
C558     C      0.984910000000     0.741910000000     0.627700000000    -0.039915   
C559     C      0.544610000000     0.774360000000     0.648440000000    -0.00622865 
C560     C      0.010850000000     0.724610000000     0.647090000000     0.118668   
C561     C      0.656660000000     0.975010000000     0.753280000000    -0.0147238  
C562     C      0.654840000000     0.522680000000     0.790090000000    -0.0425839  
C563     C      0.632610000000     0.991390000000     0.730440000000     0.00754767 
C564     C      0.630020000000     0.538340000000     0.767760000000     0.117767   
C565     C      0.879970000000     0.532740000000     0.751310000000    -0.00940552 
C566     C      0.882310000000     0.981370000000     0.782830000000    -0.0346516  
C567     C      0.905400000000     0.519560000000     0.727720000000    -0.0041525  
C568     C      0.907810000000     0.968670000000     0.759460000000     0.11736    
C569     C      0.550370000000     0.862640000000     0.772100000000    -0.008248   
C570     C      0.498260000000     0.860880000000     0.739220000000    -0.0377398  
C571     C      0.038980000000     0.896570000000     0.779980000000    -0.00054976 
C572     C      0.010290000000     0.892810000000     0.725610000000     0.120861   
C573     C      0.550590000000     0.640290000000     0.746200000000    -0.00972682 
C574     C      0.999830000000     0.641130000000     0.780070000000    -0.039665   
C575     C      0.535200000000     0.614920000000     0.724300000000    -0.00494545 
C576     C      0.985020000000     0.615490000000     0.758500000000     0.11792    
H1       H      0.377730000000     0.236430000000     0.456710000000     0.0632284  
H2       H      0.378770000000     0.198510000000     0.007240000000     0.0414236  
H3       H      0.415280000000     0.220570000000     0.046820000000     0.0398072  
H4       H      0.351050000000     0.270540000000     0.458460000000     0.0621789  
H5       H      0.384770000000     0.295200000000     0.500700000000     0.0303406  
H6       H      0.354860000000     0.209730000000     0.041650000000     0.0392414  
H7       H      0.389840000000     0.254650000000     0.052690000000     0.0405145  
H8       H      0.144020000000     0.320650000000     0.019140000000     0.0635522  
H9       H      0.142530000000     0.288400000000     0.073190000000     0.0436028  
H10      H      0.104260000000     0.244160000000     0.067980000000     0.0384411  
H11      H      0.167610000000     0.305050000000     0.486310000000     0.0644991  
H12      H      0.130160000000     0.260220000000     0.480510000000     0.0316318  
H13      H      0.164920000000     0.251420000000     0.074560000000     0.0433218  
H14      H      0.127750000000     0.226720000000     0.535880000000     0.0477927  
H15      H      0.280660000000     0.374540000000     0.463960000000     0.0652907  
H16      H      0.318260000000     0.372740000000     0.015590000000     0.0445936  
H17      H      0.297750000000     0.412400000000     0.051860000000     0.0407104  
H18      H      0.244450000000     0.350500000000     0.464560000000     0.0666151  
H19      H      0.220260000000     0.384810000000     0.506340000000     0.0311533  
H20      H      0.303430000000     0.351630000000     0.050180000000     0.0442596  
H21      H      0.261500000000     0.390190000000     0.059280000000     0.0391126  
H22      H      0.207590000000     0.160230000000     0.989400000000     0.0601416  
H23      H      0.243440000000     0.146000000000     0.070850000000     0.0588575  
H24      H      0.283520000000     0.103180000000     0.061480000000     0.0401165  
H25      H      0.245910000000     0.144310000000     0.477500000000     0.0495962  
H26      H      0.209950000000     0.099970000000     0.489470000000     0.027337   
H27      H      0.282200000000     0.162370000000     0.060680000000     0.0405099  
H28      H      0.293060000000     0.118880000000     0.522330000000     0.0407754  
H29      H      0.274710000000     0.050950000000     0.398960000000     0.0611077  
H30      H      0.219590000000     0.017550000000     0.393450000000     0.0384487  
H31      H      0.228920000000     0.467720000000     0.363440000000     0.0442828  
H32      H      0.304380000000     0.036330000000     0.426940000000     0.0637196  
H33      H      0.312490000000     0.488660000000     0.394820000000     0.0331744  
H34      H      0.214940000000     0.483820000000     0.419870000000     0.0612513  
H35      H      0.259420000000     0.455630000000     0.392250000000     0.0561747  
H36      H      0.265280000000     0.455920000000     0.142060000000     0.0600897  
H37      H      0.210970000000     0.989780000000     0.145360000000     0.0501117  
H38      H      0.221740000000     0.037420000000     0.177650000000     0.037943   
H39      H      0.294990000000     0.467800000000     0.112740000000     0.0619195  
H40      H      0.304110000000     0.517720000000     0.142450000000     0.0296098  
H41      H      0.208150000000     0.024120000000     0.119270000000     0.048039   
H42      H      0.251440000000     0.051210000000     0.148900000000     0.0418173  
H43      H      0.982920000000     0.288970000000     0.354300000000     0.0656394  
H44      H      0.066470000000     0.254450000000     0.375520000000     0.0641448  
H45      H      0.553000000000     0.220450000000     0.422110000000     0.045574   
H46      H      0.972940000000     0.251870000000     0.373250000000     0.05557    
H47      H      0.481620000000     0.293310000000     0.414180000000     0.0480383  
H48      H      0.554440000000     0.216000000000     0.361280000000     0.042553   
H49      H      0.514480000000     0.210230000000     0.404980000000     0.0435663  
H50      H      0.467020000000     0.252250000000     0.144830000000     0.0616478  
H51      H      0.502080000000     0.304400000000     0.144580000000     0.048957   
H52      H      0.056520000000     0.291810000000     0.164840000000     0.0465203  
H53      H      0.471860000000     0.224900000000     0.111710000000     0.0609525  
H54      H      0.027780000000     0.213650000000     0.129380000000     0.0308589  
H55      H      0.030830000000     0.309430000000     0.112120000000     0.0493893  
H56      H      0.063280000000     0.264430000000     0.131890000000     0.0405569  
H57      H      0.141480000000     0.009890000000     0.309470000000     0.0624069  
H58      H      0.142820000000     0.459590000000     0.270210000000     0.0447391  
H59      H      0.117880000000     0.472890000000     0.217990000000     0.0455077  
H60      H      0.170050000000     0.041240000000     0.301810000000     0.065488   
H61      H      0.144010000000     0.053060000000     0.250330000000     0.0266054  
H62      H      0.173090000000     0.459620000000     0.238820000000     0.0450452  
H63      H      0.146520000000     0.504850000000     0.211910000000     0.040837   
H64      H      0.395020000000     0.492200000000     0.303810000000     0.0765861  
H65      H      0.392560000000     0.046970000000     0.270120000000     0.0653579  
H66      H      0.420390000000     0.039550000000     0.218290000000     0.0490342  
H67      H      0.367290000000     0.461370000000     0.292100000000     0.0718281  
H68      H      0.394550000000     0.455680000000     0.240140000000     0.0381263  
H69      H      0.363230000000     0.048760000000     0.237930000000     0.0523983  
H70      H      0.392620000000     0.008230000000     0.207070000000     0.0553224  
H71      H      0.988380000000     0.346030000000     0.219250000000     0.0617955  
H72      H      0.071620000000     0.363730000000     0.255650000000     0.058689   
H73      H      0.059740000000     0.410510000000     0.289690000000     0.0457865  
H74      H      0.978010000000     0.365490000000     0.256310000000     0.0627252  
H75      H      0.489260000000     0.405500000000     0.214760000000     0.0350765  
H76      H      0.058530000000     0.350800000000     0.294720000000     0.0495534  
H77      H      0.520180000000     0.395520000000     0.299180000000     0.056295   
H78      H      0.511370000000     0.129200000000     0.301100000000     0.0671172  
H79      H      0.065460000000     0.128120000000     0.264840000000     0.0592506  
H80      H      0.054640000000     0.099300000000     0.214480000000     0.0474424  
H81      H      0.480430000000     0.156990000000     0.289520000000     0.0666563  
H82      H      0.471330000000     0.128140000000     0.239230000000     0.0371741  
H83      H      0.066850000000     0.155580000000     0.231420000000     0.0503585  
H84      H      0.023060000000     0.127060000000     0.203760000000     0.0575744  
H85      H      0.377730000000     0.236430000000     0.956710000000     0.063276   
H86      H      0.378770000000     0.198510000000     0.507240000000     0.0414484  
H87      H      0.415280000000     0.220570000000     0.546820000000     0.0398186  
H88      H      0.351050000000     0.270540000000     0.958460000000     0.0622248  
H89      H      0.384770000000     0.295200000000     0.000700000000     0.0301573  
H90      H      0.354860000000     0.209730000000     0.541640000000     0.0392291  
H91      H      0.389840000000     0.254650000000     0.552690000000     0.0405288  
H92      H      0.144020000000     0.320650000000     0.519140000000     0.0635228  
H93      H      0.142530000000     0.288400000000     0.573190000000     0.0435867  
H94      H      0.104260000000     0.244160000000     0.567980000000     0.0384504  
H95      H      0.167610000000     0.305050000000     0.986310000000     0.0646807  
H96      H      0.130160000000     0.260220000000     0.980510000000     0.0316119  
H97      H      0.164920000000     0.251420000000     0.574560000000     0.0433045  
H98      H      0.127750000000     0.226720000000     0.035880000000     0.0477505  
H99      H      0.280660000000     0.374540000000     0.963960000000     0.0653135  
H100     H      0.318260000000     0.372740000000     0.515590000000     0.0446364  
H101     H      0.297750000000     0.412400000000     0.551860000000     0.0407149  
H102     H      0.244450000000     0.350500000000     0.964560000000     0.066622   
H103     H      0.220260000000     0.384810000000     0.006340000000     0.0309764  
H104     H      0.303430000000     0.351630000000     0.550180000000     0.0442678  
H105     H      0.261500000000     0.390190000000     0.559280000000     0.0391172  
H106     H      0.207590000000     0.160230000000     0.489400000000     0.0601612  
H107     H      0.243440000000     0.146000000000     0.570860000000     0.0588324  
H108     H      0.283520000000     0.103180000000     0.561480000000     0.0401174  
H109     H      0.245910000000     0.144310000000     0.977500000000     0.0495671  
H110     H      0.209950000000     0.099970000000     0.989470000000     0.0275386  
H111     H      0.282200000000     0.162370000000     0.560680000000     0.0405018  
H112     H      0.293060000000     0.118880000000     0.022330000000     0.0407384  
H113     H      0.274710000000     0.050950000000     0.898960000000     0.0611183  
H114     H      0.219590000000     0.017550000000     0.893450000000     0.0384581  
H115     H      0.228920000000     0.467720000000     0.863440000000     0.0442849  
H116     H      0.304380000000     0.036330000000     0.926940000000     0.0637439  
H117     H      0.312490000000     0.488660000000     0.894820000000     0.0331871  
H118     H      0.214940000000     0.483820000000     0.919870000000     0.0612663  
H119     H      0.259420000000     0.455630000000     0.892250000000     0.0561807  
H120     H      0.265280000000     0.455920000000     0.642060000000     0.0600865  
H121     H      0.210970000000     0.989780000000     0.645360000000     0.0501126  
H122     H      0.221740000000     0.037420000000     0.677650000000     0.0379424  
H123     H      0.294990000000     0.467800000000     0.612740000000     0.0619154  
H124     H      0.304110000000     0.517720000000     0.642450000000     0.0296133  
H125     H      0.208150000000     0.024120000000     0.619270000000     0.0480407  
H126     H      0.251440000000     0.051210000000     0.648900000000     0.0418163  
H127     H      0.982920000000     0.288970000000     0.854300000000     0.0656408  
H128     H      0.066470000000     0.254450000000     0.875520000000     0.0641462  
H129     H      0.553000000000     0.220450000000     0.922110000000     0.0455942  
H130     H      0.972940000000     0.251870000000     0.873250000000     0.0555749  
H131     H      0.481620000000     0.293310000000     0.914180000000     0.0480509  
H132     H      0.554440000000     0.216000000000     0.861280000000     0.042557   
H133     H      0.514480000000     0.210230000000     0.904980000000     0.0435824  
H134     H      0.467020000000     0.252250000000     0.644830000000     0.061653   
H135     H      0.502080000000     0.304400000000     0.644580000000     0.0489619  
H136     H      0.056520000000     0.291810000000     0.664840000000     0.0465179  
H137     H      0.471860000000     0.224900000000     0.611720000000     0.0609655  
H138     H      0.027780000000     0.213650000000     0.629380000000     0.0308596  
H139     H      0.030830000000     0.309430000000     0.612130000000     0.0493956  
H140     H      0.063280000000     0.264430000000     0.631890000000     0.0405557  
H141     H      0.141480000000     0.009890000000     0.809470000000     0.0624114  
H142     H      0.142820000000     0.459590000000     0.770210000000     0.0447396  
H143     H      0.117880000000     0.472890000000     0.717990000000     0.0455078  
H144     H      0.170050000000     0.041240000000     0.801810000000     0.0654902  
H145     H      0.144010000000     0.053060000000     0.750330000000     0.0266045  
H146     H      0.173090000000     0.459620000000     0.738820000000     0.0450446  
H147     H      0.146520000000     0.504850000000     0.711910000000     0.040837   
H148     H      0.395020000000     0.492200000000     0.803810000000     0.0765903  
H149     H      0.392560000000     0.046970000000     0.770120000000     0.0653588  
H150     H      0.420390000000     0.039550000000     0.718290000000     0.0490275  
H151     H      0.367290000000     0.461370000000     0.792100000000     0.0718306  
H152     H      0.394550000000     0.455680000000     0.740140000000     0.0381234  
H153     H      0.363230000000     0.048760000000     0.737930000000     0.0523989  
H154     H      0.392620000000     0.008230000000     0.707070000000     0.0553183  
H155     H      0.988380000000     0.346030000000     0.719250000000     0.0618014  
H156     H      0.071620000000     0.363730000000     0.755650000000     0.0586882  
H157     H      0.059740000000     0.410510000000     0.789690000000     0.0457885  
H158     H      0.978010000000     0.365490000000     0.756310000000     0.0627279  
H159     H      0.489260000000     0.405500000000     0.714760000000     0.0350835  
H160     H      0.058530000000     0.350800000000     0.794720000000     0.0495547  
H161     H      0.520180000000     0.395520000000     0.799180000000     0.0562974  
H162     H      0.511370000000     0.129200000000     0.801100000000     0.0671217  
H163     H      0.065460000000     0.128120000000     0.764840000000     0.0592461  
H164     H      0.054640000000     0.099300000000     0.714480000000     0.0474444  
H165     H      0.480430000000     0.156990000000     0.789520000000     0.0666584  
H166     H      0.471330000000     0.128140000000     0.739230000000     0.0371734  
H167     H      0.066850000000     0.155580000000     0.731410000000     0.050345   
H168     H      0.023060000000     0.127060000000     0.703760000000     0.0575765  
H169     H      0.377730000000     0.736430000000     0.456710000000     0.0632455  
H170     H      0.378770000000     0.698510000000     0.007240000000     0.0415268  
H171     H      0.415280000000     0.720570000000     0.046820000000     0.039876   
H172     H      0.351050000000     0.770540000000     0.458460000000     0.0622048  
H173     H      0.384770000000     0.795200000000     0.500700000000     0.0304795  
H174     H      0.354860000000     0.709730000000     0.041650000000     0.0392876  
H175     H      0.389840000000     0.754650000000     0.052690000000     0.0405564  
H176     H      0.144020000000     0.820650000000     0.019140000000     0.0638064  
H177     H      0.142530000000     0.788400000000     0.073190000000     0.0437276  
H178     H      0.104260000000     0.744160000000     0.067980000000     0.0384764  
H179     H      0.167610000000     0.805050000000     0.486310000000     0.0645929  
H180     H      0.130160000000     0.760220000000     0.480510000000     0.0316286  
H181     H      0.164920000000     0.751430000000     0.074560000000     0.0433418  
H182     H      0.127750000000     0.726720000000     0.535880000000     0.0478175  
H183     H      0.280660000000     0.874540000000     0.463960000000     0.0654911  
H184     H      0.318260000000     0.872740000000     0.015590000000     0.0449409  
H185     H      0.297750000000     0.912400000000     0.051860000000     0.0413148  
H186     H      0.244450000000     0.850490000000     0.464560000000     0.0666408  
H187     H      0.220260000000     0.884810000000     0.506340000000     0.0314564  
H188     H      0.303430000000     0.851630000000     0.050180000000     0.0443836  
H189     H      0.261500000000     0.890190000000     0.059280000000     0.0393809  
H190     H      0.207590000000     0.660230000000     0.989400000000     0.0601708  
H191     H      0.243440000000     0.646000000000     0.070850000000     0.0588843  
H192     H      0.283520000000     0.603180000000     0.061480000000     0.040333   
H193     H      0.245910000000     0.644310000000     0.477500000000     0.0496196  
H194     H      0.209950000000     0.599970000000     0.489470000000     0.0275215  
H195     H      0.282200000000     0.662370000000     0.060680000000     0.0405426  
H196     H      0.293060000000     0.618880000000     0.522330000000     0.0409005  
H197     H      0.274710000000     0.550950000000     0.398960000000     0.0619101  
H198     H      0.219590000000     0.517550000000     0.393450000000     0.0453933  
H199     H      0.228920000000     0.967720000000     0.363440000000     0.0460326  
H200     H      0.304380000000     0.536330000000     0.426940000000     0.0650143  
H201     H      0.312490000000     0.988660000000     0.394820000000     0.0401534  
H202     H      0.214940000000     0.983820000000     0.419870000000     0.0604817  
H203     H      0.259420000000     0.955630000000     0.392250000000     0.0574564  
H204     H      0.265280000000     0.955920000000     0.142060000000     0.0609648  
H205     H      0.210970000000     0.489780000000     0.145360000000     0.0427231  
H206     H      0.221740000000     0.537430000000     0.177650000000     0.0392069  
H207     H      0.294990000000     0.967800000000     0.112740000000     0.0636944  
H208     H      0.304110000000     0.017720000000     0.142450000000     0.0231085  
H209     H      0.208150000000     0.524120000000     0.119270000000     0.0465583  
H210     H      0.251440000000     0.551210000000     0.148900000000     0.0428273  
H211     H      0.982920000000     0.788970000000     0.354300000000     0.0656847  
H212     H      0.066470000000     0.754450000000     0.375520000000     0.0641601  
H213     H      0.553000000000     0.720450000000     0.422110000000     0.0456281  
H214     H      0.972940000000     0.751870000000     0.373250000000     0.0555694  
H215     H      0.481620000000     0.793310000000     0.414180000000     0.0481436  
H216     H      0.554440000000     0.716000000000     0.361280000000     0.042593   
H217     H      0.514480000000     0.710230000000     0.404980000000     0.0436516  
H218     H      0.467020000000     0.752250000000     0.144830000000     0.0616691  
H219     H      0.502080000000     0.804400000000     0.144580000000     0.0490917  
H220     H      0.056520000000     0.791810000000     0.164840000000     0.0465581  
H221     H      0.471860000000     0.724900000000     0.111710000000     0.061002   
H222     H      0.027780000000     0.713650000000     0.129380000000     0.0309217  
H223     H      0.030830000000     0.809430000000     0.112120000000     0.0496115  
H224     H      0.063280000000     0.764430000000     0.131890000000     0.0405666  
H225     H      0.141480000000     0.509890000000     0.309470000000     0.0631071  
H226     H      0.142820000000     0.959590000000     0.270210000000     0.0467977  
H227     H      0.117880000000     0.972890000000     0.217990000000     0.0444963  
H228     H      0.170050000000     0.541240000000     0.301810000000     0.0646719  
H229     H      0.144010000000     0.553060000000     0.250330000000     0.0272705  
H230     H      0.173090000000     0.959620000000     0.238820000000     0.0468674  
H231     H      0.146520000000     0.004850000000     0.211910000000     0.0335965  
H232     H      0.395020000000     0.992190000000     0.303810000000     0.077868   
H233     H      0.392560000000     0.546970000000     0.270120000000     0.0664084  
H234     H      0.420390000000     0.539550000000     0.218290000000     0.0488342  
H235     H      0.367290000000     0.961370000000     0.292100000000     0.0716456  
H236     H      0.394550000000     0.955680000000     0.240140000000     0.0393094  
H237     H      0.363230000000     0.548760000000     0.237930000000     0.0526591  
H238     H      0.392620000000     0.508230000000     0.207070000000     0.0564988  
H239     H      0.988380000000     0.846030000000     0.219250000000     0.0618544  
H240     H      0.071620000000     0.863730000000     0.255650000000     0.0588096  
H241     H      0.059740000000     0.910510000000     0.289690000000     0.0465213  
H242     H      0.978010000000     0.865490000000     0.256310000000     0.0627992  
H243     H      0.489260000000     0.905500000000     0.214760000000     0.0355773  
H244     H      0.058530000000     0.850800000000     0.294720000000     0.0496791  
H245     H      0.520180000000     0.895510000000     0.299180000000     0.056709   
H246     H      0.511370000000     0.629200000000     0.301100000000     0.0672525  
H247     H      0.065460000000     0.628120000000     0.264840000000     0.0592524  
H248     H      0.054640000000     0.599300000000     0.214480000000     0.0475545  
H249     H      0.480430000000     0.656980000000     0.289520000000     0.066689   
H250     H      0.471330000000     0.628140000000     0.239230000000     0.0372217  
H251     H      0.066850000000     0.655580000000     0.231420000000     0.0503697  
H252     H      0.023060000000     0.627060000000     0.203760000000     0.0576927  
H253     H      0.377730000000     0.736430000000     0.956710000000     0.0632931  
H254     H      0.378770000000     0.698510000000     0.507240000000     0.0415517  
H255     H      0.415280000000     0.720570000000     0.546820000000     0.0398874  
H256     H      0.351050000000     0.770540000000     0.958460000000     0.0622506  
H257     H      0.384770000000     0.795200000000     0.000700000000     0.0302967  
H258     H      0.354860000000     0.709730000000     0.541640000000     0.0392754  
H259     H      0.389840000000     0.754650000000     0.552690000000     0.0405707  
H260     H      0.144020000000     0.820650000000     0.519140000000     0.0637771  
H261     H      0.142530000000     0.788400000000     0.573190000000     0.0437114  
H262     H      0.104260000000     0.744160000000     0.567980000000     0.0384857  
H263     H      0.167610000000     0.805050000000     0.986310000000     0.064774   
H264     H      0.130160000000     0.760220000000     0.980510000000     0.0316088  
H265     H      0.164920000000     0.751430000000     0.574560000000     0.0433245  
H266     H      0.127750000000     0.726720000000     0.035880000000     0.0477754  
H267     H      0.280660000000     0.874540000000     0.963960000000     0.0655138  
H268     H      0.318260000000     0.872740000000     0.515590000000     0.0449836  
H269     H      0.297750000000     0.912400000000     0.551860000000     0.0413192  
H270     H      0.244450000000     0.850490000000     0.964560000000     0.0666477  
H271     H      0.220260000000     0.884810000000     0.006340000000     0.0312802  
H272     H      0.303430000000     0.851630000000     0.550180000000     0.0443918  
H273     H      0.261500000000     0.890190000000     0.559280000000     0.0393855  
H274     H      0.207590000000     0.660230000000     0.489400000000     0.0601905  
H275     H      0.243440000000     0.646000000000     0.570860000000     0.0588593  
H276     H      0.283520000000     0.603180000000     0.561480000000     0.0403339  
H277     H      0.245910000000     0.644310000000     0.977500000000     0.0495905  
H278     H      0.209950000000     0.599970000000     0.989470000000     0.0277232  
H279     H      0.282200000000     0.662370000000     0.560680000000     0.0405345  
H280     H      0.293060000000     0.618880000000     0.022330000000     0.0408634  
H281     H      0.274710000000     0.550950000000     0.898960000000     0.0619206  
H282     H      0.219590000000     0.517550000000     0.893450000000     0.0454021  
H283     H      0.228920000000     0.967720000000     0.863440000000     0.0460345  
H284     H      0.304380000000     0.536330000000     0.926940000000     0.0650386  
H285     H      0.312490000000     0.988660000000     0.894820000000     0.0401655  
H286     H      0.214940000000     0.983820000000     0.919870000000     0.0604966  
H287     H      0.259420000000     0.955630000000     0.892250000000     0.0574623  
H288     H      0.265280000000     0.955920000000     0.642060000000     0.0609615  
H289     H      0.210970000000     0.489780000000     0.645360000000     0.0427242  
H290     H      0.221740000000     0.537430000000     0.677650000000     0.0392062  
H291     H      0.294990000000     0.967800000000     0.612740000000     0.0636903  
H292     H      0.304110000000     0.017720000000     0.642450000000     0.0231121  
H293     H      0.208150000000     0.524120000000     0.619270000000     0.04656    
H294     H      0.251440000000     0.551210000000     0.648900000000     0.0428263  
H295     H      0.982920000000     0.788970000000     0.854300000000     0.0656861  
H296     H      0.066470000000     0.754450000000     0.875520000000     0.0641615  
H297     H      0.553000000000     0.720450000000     0.922110000000     0.0456483  
H298     H      0.972940000000     0.751870000000     0.873250000000     0.0555744  
H299     H      0.481620000000     0.793310000000     0.914180000000     0.0481562  
H300     H      0.554440000000     0.716000000000     0.861280000000     0.042597   
H301     H      0.514480000000     0.710230000000     0.904980000000     0.0436676  
H302     H      0.467020000000     0.752250000000     0.644830000000     0.0616743  
H303     H      0.502080000000     0.804400000000     0.644580000000     0.0490966  
H304     H      0.056520000000     0.791810000000     0.664840000000     0.0465556  
H305     H      0.471860000000     0.724900000000     0.611720000000     0.061015   
H306     H      0.027780000000     0.713650000000     0.629380000000     0.0309224  
H307     H      0.030830000000     0.809430000000     0.612130000000     0.0496178  
H308     H      0.063280000000     0.764430000000     0.631890000000     0.0405654  
H309     H      0.141480000000     0.509890000000     0.809470000000     0.0631116  
H310     H      0.142820000000     0.959590000000     0.770210000000     0.0467981  
H311     H      0.117880000000     0.972890000000     0.717990000000     0.0444964  
H312     H      0.170050000000     0.541240000000     0.801810000000     0.0646741  
H313     H      0.144010000000     0.553060000000     0.750330000000     0.0272696  
H314     H      0.173090000000     0.959620000000     0.738820000000     0.0468667  
H315     H      0.146520000000     0.004850000000     0.711910000000     0.0335967  
H316     H      0.395020000000     0.992190000000     0.803810000000     0.0778721  
H317     H      0.392560000000     0.546970000000     0.770120000000     0.0664092  
H318     H      0.420390000000     0.539550000000     0.718290000000     0.0488276  
H319     H      0.367290000000     0.961370000000     0.792100000000     0.0716481  
H320     H      0.394550000000     0.955680000000     0.740140000000     0.0393065  
H321     H      0.363230000000     0.548760000000     0.737930000000     0.0526597  
H322     H      0.392620000000     0.508230000000     0.707070000000     0.0564947  
H323     H      0.988380000000     0.846030000000     0.719250000000     0.0618603  
H324     H      0.071620000000     0.863730000000     0.755650000000     0.0588088  
H325     H      0.059740000000     0.910510000000     0.789690000000     0.0465232  
H326     H      0.978010000000     0.865490000000     0.756310000000     0.0628019  
H327     H      0.489260000000     0.905500000000     0.714760000000     0.0355842  
H328     H      0.058530000000     0.850800000000     0.794720000000     0.0496804  
H329     H      0.520180000000     0.895510000000     0.799180000000     0.0567114  
H330     H      0.511370000000     0.629200000000     0.801100000000     0.067257   
H331     H      0.065460000000     0.628120000000     0.764840000000     0.0592479  
H332     H      0.054640000000     0.599300000000     0.714480000000     0.0475565  
H333     H      0.480430000000     0.656980000000     0.789520000000     0.0666911  
H334     H      0.471330000000     0.628140000000     0.739230000000     0.037221   
H335     H      0.066850000000     0.655580000000     0.731410000000     0.0503563  
H336     H      0.023060000000     0.627060000000     0.703760000000     0.0576949  
H337     H      0.877730000000     0.236430000000     0.456710000000     0.063236   
H338     H      0.878770000000     0.198510000000     0.007240000000     0.0414315  
H339     H      0.915280000000     0.220570000000     0.046820000000     0.0398258  
H340     H      0.851050000000     0.270540000000     0.458460000000     0.0621798  
H341     H      0.884770000000     0.295200000000     0.500700000000     0.0303464  
H342     H      0.854860000000     0.209730000000     0.041650000000     0.039243   
H343     H      0.889840000000     0.254650000000     0.052690000000     0.0405266  
H344     H      0.644020000000     0.320650000000     0.019140000000     0.0635529  
H345     H      0.642530000000     0.288400000000     0.073190000000     0.0436029  
H346     H      0.604260000000     0.244160000000     0.067980000000     0.0384426  
H347     H      0.667610000000     0.305050000000     0.486310000000     0.0644989  
H348     H      0.630150000000     0.260220000000     0.480510000000     0.0316316  
H349     H      0.664920000000     0.251420000000     0.074560000000     0.0433216  
H350     H      0.627750000000     0.226720000000     0.535880000000     0.0477957  
H351     H      0.780660000000     0.374540000000     0.463960000000     0.0652858  
H352     H      0.818250000000     0.372740000000     0.015590000000     0.0446123  
H353     H      0.797760000000     0.412400000000     0.051860000000     0.0407027  
H354     H      0.744450000000     0.350500000000     0.464560000000     0.0666059  
H355     H      0.720260000000     0.384810000000     0.506340000000     0.0311411  
H356     H      0.803440000000     0.351630000000     0.050180000000     0.0442614  
H357     H      0.761500000000     0.390190000000     0.059280000000     0.0391091  
H358     H      0.707590000000     0.160230000000     0.989400000000     0.0601428  
H359     H      0.743440000000     0.146000000000     0.070850000000     0.0588565  
H360     H      0.783520000000     0.103180000000     0.061480000000     0.0401208  
H361     H      0.745910000000     0.144310000000     0.477500000000     0.0495966  
H362     H      0.709950000000     0.099970000000     0.489470000000     0.0273375  
H363     H      0.782200000000     0.162370000000     0.060680000000     0.04051    
H364     H      0.793060000000     0.118880000000     0.522330000000     0.0407794  
H365     H      0.774710000000     0.050950000000     0.398960000000     0.0611276  
H366     H      0.719590000000     0.017550000000     0.393450000000     0.0384155  
H367     H      0.728920000000     0.467720000000     0.363440000000     0.0442923  
H368     H      0.804380000000     0.036330000000     0.426940000000     0.0637555  
H369     H      0.812490000000     0.488660000000     0.394820000000     0.0331722  
H370     H      0.714940000000     0.483820000000     0.419870000000     0.0612146  
H371     H      0.759420000000     0.455630000000     0.392250000000     0.0561845  
H372     H      0.765280000000     0.455920000000     0.142060000000     0.0600903  
H373     H      0.710970000000     0.989780000000     0.145360000000     0.0501281  
H374     H      0.721740000000     0.037420000000     0.177650000000     0.0379149  
H375     H      0.794990000000     0.467800000000     0.112740000000     0.0619236  
H376     H      0.804100000000     0.517720000000     0.142450000000     0.0296023  
H377     H      0.708160000000     0.024120000000     0.119270000000     0.0480652  
H378     H      0.751450000000     0.051210000000     0.148900000000     0.0417917  
H379     H      0.482920000000     0.288970000000     0.354300000000     0.065659   
H380     H      0.566470000000     0.254450000000     0.375520000000     0.0641413  
H381     H      0.053010000000     0.220450000000     0.422110000000     0.0455509  
H382     H      0.472940000000     0.251870000000     0.373250000000     0.0555927  
H383     H      0.981620000000     0.293310000000     0.414180000000     0.048195   
H384     H      0.054440000000     0.216000000000     0.361280000000     0.0425477  
H385     H      0.014480000000     0.210230000000     0.404980000000     0.0435317  
H386     H      0.967020000000     0.252250000000     0.144830000000     0.0616381  
H387     H      0.002080000000     0.304400000000     0.144580000000     0.0488983  
H388     H      0.556520000000     0.291810000000     0.164840000000     0.0465145  
H389     H      0.971860000000     0.224900000000     0.111710000000     0.0609406  
H390     H      0.527780000000     0.213650000000     0.129380000000     0.0308507  
H391     H      0.530830000000     0.309430000000     0.112120000000     0.049414   
H392     H      0.563280000000     0.264430000000     0.131890000000     0.0405446  
H393     H      0.641480000000     0.009890000000     0.309470000000     0.0624088  
H394     H      0.642820000000     0.459590000000     0.270210000000     0.0447382  
H395     H      0.617890000000     0.472890000000     0.217990000000     0.0455067  
H396     H      0.670050000000     0.041240000000     0.301810000000     0.0654878  
H397     H      0.644010000000     0.053060000000     0.250330000000     0.0266052  
H398     H      0.673090000000     0.459620000000     0.238820000000     0.0450428  
H399     H      0.646520000000     0.504850000000     0.211910000000     0.0408404  
H400     H      0.895020000000     0.492200000000     0.303810000000     0.076595   
H401     H      0.892560000000     0.046970000000     0.270120000000     0.0653576  
H402     H      0.920390000000     0.039550000000     0.218290000000     0.0490502  
H403     H      0.867290000000     0.461370000000     0.292100000000     0.0718229  
H404     H      0.894550000000     0.455680000000     0.240140000000     0.0381325  
H405     H      0.863230000000     0.048760000000     0.237930000000     0.0523913  
H406     H      0.892620000000     0.008230000000     0.207070000000     0.0553319  
H407     H      0.488380000000     0.346030000000     0.219250000000     0.0618099  
H408     H      0.571620000000     0.363730000000     0.255650000000     0.0586865  
H409     H      0.559740000000     0.410510000000     0.289690000000     0.0457867  
H410     H      0.478010000000     0.365490000000     0.256310000000     0.0627509  
H411     H      0.989260000000     0.405500000000     0.214760000000     0.035235   
H412     H      0.558530000000     0.350800000000     0.294720000000     0.0495583  
H413     H      0.020180000000     0.395520000000     0.299180000000     0.0562626  
H414     H      0.011370000000     0.129200000000     0.301100000000     0.0669772  
H415     H      0.565460000000     0.128120000000     0.264840000000     0.0592513  
H416     H      0.554640000000     0.099300000000     0.214480000000     0.0474483  
H417     H      0.980430000000     0.156990000000     0.289520000000     0.066629   
H418     H      0.971330000000     0.128140000000     0.239230000000     0.0371874  
H419     H      0.566850000000     0.155580000000     0.231420000000     0.050359   
H420     H      0.523070000000     0.127060000000     0.203760000000     0.0576169  
H421     H      0.877730000000     0.236430000000     0.956710000000     0.0632836  
H422     H      0.878770000000     0.198510000000     0.507240000000     0.0414564  
H423     H      0.915280000000     0.220570000000     0.546820000000     0.0398371  
H424     H      0.851050000000     0.270540000000     0.958460000000     0.0622257  
H425     H      0.884770000000     0.295200000000     0.000700000000     0.0301632  
H426     H      0.854860000000     0.209730000000     0.541640000000     0.0392307  
H427     H      0.889840000000     0.254650000000     0.552690000000     0.040541   
H428     H      0.644020000000     0.320650000000     0.519140000000     0.0635234  
H429     H      0.642530000000     0.288400000000     0.573190000000     0.0435867  
H430     H      0.604260000000     0.244160000000     0.567980000000     0.038452   
H431     H      0.667610000000     0.305050000000     0.986310000000     0.0646805  
H432     H      0.630150000000     0.260220000000     0.980510000000     0.0316117  
H433     H      0.664920000000     0.251420000000     0.574560000000     0.0433043  
H434     H      0.627750000000     0.226720000000     0.035880000000     0.0477535  
H435     H      0.780660000000     0.374540000000     0.963960000000     0.0653086  
H436     H      0.818250000000     0.372740000000     0.515590000000     0.0446551  
H437     H      0.797760000000     0.412400000000     0.551860000000     0.0407072  
H438     H      0.744450000000     0.350500000000     0.964560000000     0.0666128  
H439     H      0.720260000000     0.384810000000     0.006340000000     0.0309641  
H440     H      0.803440000000     0.351630000000     0.550180000000     0.0442696  
H441     H      0.761500000000     0.390190000000     0.559280000000     0.0391137  
H442     H      0.707590000000     0.160230000000     0.489400000000     0.0601624  
H443     H      0.743440000000     0.146000000000     0.570860000000     0.0588314  
H444     H      0.783520000000     0.103180000000     0.561480000000     0.0401217  
H445     H      0.745910000000     0.144310000000     0.977500000000     0.0495675  
H446     H      0.709950000000     0.099970000000     0.989470000000     0.0275391  
H447     H      0.782200000000     0.162370000000     0.560680000000     0.0405019  
H448     H      0.793060000000     0.118880000000     0.022330000000     0.0407423  
H449     H      0.774710000000     0.050950000000     0.898960000000     0.0611382  
H450     H      0.719590000000     0.017550000000     0.893450000000     0.0384248  
H451     H      0.728920000000     0.467720000000     0.863440000000     0.0442944  
H452     H      0.804380000000     0.036330000000     0.926940000000     0.0637799  
H453     H      0.812490000000     0.488660000000     0.894820000000     0.033185   
H454     H      0.714940000000     0.483820000000     0.919870000000     0.0612295  
H455     H      0.759420000000     0.455630000000     0.892250000000     0.0561905  
H456     H      0.765280000000     0.455920000000     0.642060000000     0.0600871  
H457     H      0.710970000000     0.989780000000     0.645360000000     0.050129   
H458     H      0.721740000000     0.037420000000     0.677650000000     0.0379142  
H459     H      0.794990000000     0.467800000000     0.612740000000     0.0619195  
H460     H      0.804100000000     0.517720000000     0.642450000000     0.0296058  
H461     H      0.708160000000     0.024120000000     0.619270000000     0.0480668  
H462     H      0.751450000000     0.051210000000     0.648900000000     0.0417906  
H463     H      0.482920000000     0.288970000000     0.854300000000     0.0656604  
H464     H      0.566470000000     0.254450000000     0.875520000000     0.0641428  
H465     H      0.053010000000     0.220450000000     0.922110000000     0.0455711  
H466     H      0.472940000000     0.251870000000     0.873250000000     0.0555977  
H467     H      0.981620000000     0.293310000000     0.914180000000     0.0482076  
H468     H      0.054440000000     0.216000000000     0.861280000000     0.0425517  
H469     H      0.014480000000     0.210230000000     0.904980000000     0.0435477  
H470     H      0.967020000000     0.252250000000     0.644830000000     0.0616432  
H471     H      0.002080000000     0.304400000000     0.644580000000     0.0489032  
H472     H      0.556520000000     0.291810000000     0.664840000000     0.046512   
H473     H      0.971860000000     0.224900000000     0.611720000000     0.0609536  
H474     H      0.527780000000     0.213650000000     0.629380000000     0.0308514  
H475     H      0.530830000000     0.309430000000     0.612130000000     0.0494203  
H476     H      0.563280000000     0.264430000000     0.631890000000     0.0405434  
H477     H      0.641480000000     0.009890000000     0.809470000000     0.0624132  
H478     H      0.642820000000     0.459590000000     0.770210000000     0.0447387  
H479     H      0.617890000000     0.472890000000     0.717990000000     0.0455067  
H480     H      0.670050000000     0.041240000000     0.801810000000     0.0654901  
H481     H      0.644010000000     0.053060000000     0.750330000000     0.0266043  
H482     H      0.673090000000     0.459620000000     0.738820000000     0.0450421  
H483     H      0.646520000000     0.504850000000     0.711910000000     0.0408404  
H484     H      0.895020000000     0.492200000000     0.803810000000     0.0765992  
H485     H      0.892560000000     0.046970000000     0.770120000000     0.0653585  
H486     H      0.920390000000     0.039550000000     0.718290000000     0.0490436  
H487     H      0.867290000000     0.461370000000     0.792100000000     0.0718254  
H488     H      0.894550000000     0.455680000000     0.740140000000     0.0381296  
H489     H      0.863230000000     0.048760000000     0.737930000000     0.0523919  
H490     H      0.892620000000     0.008230000000     0.707070000000     0.0553278  
H491     H      0.488380000000     0.346030000000     0.719250000000     0.0618158  
H492     H      0.571620000000     0.363730000000     0.755650000000     0.0586857  
H493     H      0.559740000000     0.410510000000     0.789690000000     0.0457887  
H494     H      0.478010000000     0.365490000000     0.756310000000     0.0627535  
H495     H      0.989260000000     0.405500000000     0.714760000000     0.035242   
H496     H      0.558530000000     0.350800000000     0.794720000000     0.0495596  
H497     H      0.020180000000     0.395520000000     0.799180000000     0.056265   
H498     H      0.011370000000     0.129200000000     0.801100000000     0.0669816  
H499     H      0.565460000000     0.128120000000     0.764840000000     0.0592468  
H500     H      0.554640000000     0.099300000000     0.714480000000     0.0474503  
H501     H      0.980430000000     0.156990000000     0.789520000000     0.0666311  
H502     H      0.971330000000     0.128140000000     0.739230000000     0.0371867  
H503     H      0.566850000000     0.155580000000     0.731410000000     0.0503455  
H504     H      0.523070000000     0.127060000000     0.703760000000     0.0576191  
H505     H      0.877730000000     0.736430000000     0.456710000000     0.0632531  
H506     H      0.878770000000     0.698510000000     0.007240000000     0.0415348  
H507     H      0.915280000000     0.720570000000     0.046820000000     0.0398946  
H508     H      0.851050000000     0.770540000000     0.458460000000     0.0622057  
H509     H      0.884770000000     0.795200000000     0.500700000000     0.0304853  
H510     H      0.854860000000     0.709730000000     0.041650000000     0.0392892  
H511     H      0.889840000000     0.754650000000     0.052690000000     0.0405685  
H512     H      0.644020000000     0.820650000000     0.019140000000     0.063807   
H513     H      0.642530000000     0.788400000000     0.073190000000     0.0437276  
H514     H      0.604260000000     0.744160000000     0.067980000000     0.038478   
H515     H      0.667610000000     0.805050000000     0.486310000000     0.0645928  
H516     H      0.630150000000     0.760220000000     0.480510000000     0.0316285  
H517     H      0.664920000000     0.751430000000     0.074560000000     0.0433416  
H518     H      0.627750000000     0.726720000000     0.535880000000     0.0478205  
H519     H      0.780660000000     0.874540000000     0.463960000000     0.0654861  
H520     H      0.818250000000     0.872740000000     0.015590000000     0.0449595  
H521     H      0.797760000000     0.912400000000     0.051860000000     0.041307   
H522     H      0.744450000000     0.850490000000     0.464560000000     0.0666316  
H523     H      0.720260000000     0.884810000000     0.506340000000     0.0314442  
H524     H      0.803440000000     0.851630000000     0.050180000000     0.0443854  
H525     H      0.761500000000     0.890190000000     0.059280000000     0.0393774  
H526     H      0.707590000000     0.660230000000     0.989400000000     0.0601721  
H527     H      0.743440000000     0.646000000000     0.070850000000     0.0588834  
H528     H      0.783520000000     0.603180000000     0.061480000000     0.0403373  
H529     H      0.745910000000     0.644310000000     0.477500000000     0.04962    
H530     H      0.709950000000     0.599970000000     0.489470000000     0.0275221  
H531     H      0.782200000000     0.662370000000     0.060680000000     0.0405427  
H532     H      0.793060000000     0.618880000000     0.522330000000     0.0409045  
H533     H      0.774710000000     0.550950000000     0.398960000000     0.0619302  
H534     H      0.719590000000     0.517550000000     0.393450000000     0.0453571  
H535     H      0.728920000000     0.967720000000     0.363440000000     0.0460424  
H536     H      0.804380000000     0.536330000000     0.426940000000     0.0650511  
H537     H      0.812490000000     0.988660000000     0.394820000000     0.0401509  
H538     H      0.714940000000     0.983820000000     0.419870000000     0.0604483  
H539     H      0.759420000000     0.955630000000     0.392250000000     0.0574662  
H540     H      0.765280000000     0.955920000000     0.142060000000     0.0609655  
H541     H      0.710970000000     0.489780000000     0.145360000000     0.0427395  
H542     H      0.721740000000     0.537430000000     0.177650000000     0.039178   
H543     H      0.794990000000     0.967800000000     0.112740000000     0.0636986  
H544     H      0.804100000000     0.017720000000     0.142450000000     0.0230995  
H545     H      0.708160000000     0.524120000000     0.119270000000     0.0465825  
H546     H      0.751450000000     0.551210000000     0.148900000000     0.0428014  
H547     H      0.482920000000     0.788970000000     0.354300000000     0.0657043  
H548     H      0.566470000000     0.754450000000     0.375520000000     0.0641566  
H549     H      0.053010000000     0.720450000000     0.422110000000     0.045605   
H550     H      0.472940000000     0.751870000000     0.373250000000     0.0555921  
H551     H      0.981620000000     0.793310000000     0.414180000000     0.0482998  
H552     H      0.054440000000     0.716000000000     0.361280000000     0.0425877  
H553     H      0.014480000000     0.710230000000     0.404980000000     0.043617   
H554     H      0.967020000000     0.752250000000     0.144830000000     0.0616594  
H555     H      0.002080000000     0.804400000000     0.144580000000     0.0490331  
H556     H      0.556520000000     0.791810000000     0.164840000000     0.0465522  
H557     H      0.971860000000     0.724900000000     0.111710000000     0.0609901  
H558     H      0.527780000000     0.713650000000     0.129380000000     0.0309136  
H559     H      0.530830000000     0.809430000000     0.112120000000     0.0496362  
H560     H      0.563280000000     0.764430000000     0.131890000000     0.0405543  
H561     H      0.641480000000     0.509890000000     0.309470000000     0.063109   
H562     H      0.642820000000     0.959590000000     0.270210000000     0.046797   
H563     H      0.617890000000     0.972890000000     0.217990000000     0.044493   
H564     H      0.670050000000     0.541240000000     0.301810000000     0.0646717  
H565     H      0.644010000000     0.553060000000     0.250330000000     0.0272703  
H566     H      0.673090000000     0.959620000000     0.238820000000     0.0468652  
H567     H      0.646520000000     0.004850000000     0.211910000000     0.0335996  
H568     H      0.895020000000     0.992190000000     0.303810000000     0.0778767  
H569     H      0.892560000000     0.546970000000     0.270120000000     0.0664079  
H570     H      0.920390000000     0.539550000000     0.218290000000     0.0488503  
H571     H      0.867290000000     0.961370000000     0.292100000000     0.0716405  
H572     H      0.894550000000     0.955680000000     0.240140000000     0.0393156  
H573     H      0.863230000000     0.548760000000     0.237930000000     0.052652   
H574     H      0.892620000000     0.508230000000     0.207070000000     0.0565083  
H575     H      0.488380000000     0.846030000000     0.219250000000     0.0618687  
H576     H      0.571620000000     0.863730000000     0.255650000000     0.0588071  
H577     H      0.559740000000     0.910510000000     0.289690000000     0.0465215  
H578     H      0.478010000000     0.865490000000     0.256310000000     0.0628247  
H579     H      0.989260000000     0.905500000000     0.214760000000     0.0357348  
H580     H      0.558530000000     0.850800000000     0.294720000000     0.049684   
H581     H      0.020180000000     0.895510000000     0.299180000000     0.0566768  
H582     H      0.011370000000     0.629200000000     0.301100000000     0.0671126  
H583     H      0.565460000000     0.628120000000     0.264840000000     0.0592531  
H584     H      0.554640000000     0.599300000000     0.214480000000     0.0475603  
H585     H      0.980430000000     0.656980000000     0.289520000000     0.0666617  
H586     H      0.971330000000     0.628140000000     0.239230000000     0.037235   
H587     H      0.566850000000     0.655580000000     0.231420000000     0.0503702  
H588     H      0.523070000000     0.627060000000     0.203760000000     0.0577352  
H589     H      0.877730000000     0.736430000000     0.956710000000     0.0633006  
H590     H      0.878770000000     0.698510000000     0.507240000000     0.0415597  
H591     H      0.915280000000     0.720570000000     0.546820000000     0.0399059  
H592     H      0.851050000000     0.770540000000     0.958460000000     0.0622514  
H593     H      0.884770000000     0.795200000000     0.000700000000     0.0303025  
H594     H      0.854860000000     0.709730000000     0.541640000000     0.039277   
H595     H      0.889840000000     0.754650000000     0.552690000000     0.0405828  
H596     H      0.644020000000     0.820650000000     0.519140000000     0.0637777  
H597     H      0.642530000000     0.788400000000     0.573190000000     0.0437114  
H598     H      0.604260000000     0.744160000000     0.567980000000     0.0384873  
H599     H      0.667610000000     0.805050000000     0.986310000000     0.0647739  
H600     H      0.630150000000     0.760220000000     0.980510000000     0.0316086  
H601     H      0.664920000000     0.751430000000     0.574560000000     0.0433243  
H602     H      0.627750000000     0.726720000000     0.035880000000     0.0477784  
H603     H      0.780660000000     0.874540000000     0.963960000000     0.0655087  
H604     H      0.818250000000     0.872740000000     0.515590000000     0.0450022  
H605     H      0.797760000000     0.912400000000     0.551860000000     0.0413115  
H606     H      0.744450000000     0.850490000000     0.964560000000     0.0666385  
H607     H      0.720260000000     0.884810000000     0.006340000000     0.0312679  
H608     H      0.803440000000     0.851630000000     0.550180000000     0.0443937  
H609     H      0.761500000000     0.890190000000     0.559280000000     0.0393819  
H610     H      0.707590000000     0.660230000000     0.489400000000     0.0601917  
H611     H      0.743440000000     0.646000000000     0.570860000000     0.0588583  
H612     H      0.783520000000     0.603180000000     0.561480000000     0.0403382  
H613     H      0.745910000000     0.644310000000     0.977500000000     0.0495909  
H614     H      0.709950000000     0.599970000000     0.989470000000     0.0277237  
H615     H      0.782200000000     0.662370000000     0.560680000000     0.0405346  
H616     H      0.793060000000     0.618880000000     0.022330000000     0.0408674  
H617     H      0.774710000000     0.550950000000     0.898960000000     0.0619407  
H618     H      0.719590000000     0.517550000000     0.893450000000     0.0453659  
H619     H      0.728920000000     0.967720000000     0.863440000000     0.0460443  
H620     H      0.804380000000     0.536330000000     0.926940000000     0.0650753  
H621     H      0.812490000000     0.988660000000     0.894820000000     0.040163   
H622     H      0.714940000000     0.983820000000     0.919870000000     0.0604632  
H623     H      0.759420000000     0.955630000000     0.892250000000     0.057472   
H624     H      0.765280000000     0.955920000000     0.642060000000     0.0609622  
H625     H      0.710970000000     0.489780000000     0.645360000000     0.0427405  
H626     H      0.721740000000     0.537430000000     0.677650000000     0.0391773  
H627     H      0.794990000000     0.967800000000     0.612740000000     0.0636944  
H628     H      0.804100000000     0.017720000000     0.642450000000     0.0231031  
H629     H      0.708160000000     0.524120000000     0.619270000000     0.0465841  
H630     H      0.751450000000     0.551210000000     0.648900000000     0.0428004  
H631     H      0.482920000000     0.788970000000     0.854300000000     0.0657057  
H632     H      0.566470000000     0.754450000000     0.875520000000     0.0641581  
H633     H      0.053010000000     0.720450000000     0.922110000000     0.0456252  
H634     H      0.472940000000     0.751870000000     0.873250000000     0.055597   
H635     H      0.981620000000     0.793310000000     0.914180000000     0.0483123  
H636     H      0.054440000000     0.716000000000     0.861280000000     0.0425916  
H637     H      0.014480000000     0.710230000000     0.904980000000     0.043633   
H638     H      0.967020000000     0.752250000000     0.644830000000     0.0616646  
H639     H      0.002080000000     0.804400000000     0.644580000000     0.0490379  
H640     H      0.556520000000     0.791810000000     0.664840000000     0.0465498  
H641     H      0.971860000000     0.724900000000     0.611720000000     0.0610032  
H642     H      0.527780000000     0.713650000000     0.629380000000     0.0309143  
H643     H      0.530830000000     0.809430000000     0.612130000000     0.0496425  
H644     H      0.563280000000     0.764430000000     0.631890000000     0.0405531  
H645     H      0.641480000000     0.509890000000     0.809470000000     0.0631134  
H646     H      0.642820000000     0.959590000000     0.770210000000     0.0467974  
H647     H      0.617890000000     0.972890000000     0.717990000000     0.0444931  
H648     H      0.670050000000     0.541240000000     0.801810000000     0.064674   
H649     H      0.644010000000     0.553060000000     0.750330000000     0.0272694  
H650     H      0.673090000000     0.959620000000     0.738820000000     0.0468645  
H651     H      0.646520000000     0.004850000000     0.711910000000     0.0335998  
H652     H      0.895020000000     0.992190000000     0.803810000000     0.0778808  
H653     H      0.892560000000     0.546970000000     0.770120000000     0.0664087  
H654     H      0.920390000000     0.539550000000     0.718290000000     0.0488437  
H655     H      0.867290000000     0.961370000000     0.792100000000     0.071643   
H656     H      0.894550000000     0.955680000000     0.740140000000     0.0393127  
H657     H      0.863230000000     0.548760000000     0.737930000000     0.0526526  
H658     H      0.892620000000     0.508230000000     0.707070000000     0.0565042  
H659     H      0.488380000000     0.846030000000     0.719250000000     0.0618746  
H660     H      0.571620000000     0.863730000000     0.755650000000     0.0588063  
H661     H      0.559740000000     0.910510000000     0.789690000000     0.0465235  
H662     H      0.478010000000     0.865490000000     0.756310000000     0.0628274  
H663     H      0.989260000000     0.905500000000     0.714760000000     0.0357417  
H664     H      0.558530000000     0.850800000000     0.794720000000     0.0496853  
H665     H      0.020180000000     0.895510000000     0.799180000000     0.0566791  
H666     H      0.011370000000     0.629200000000     0.801100000000     0.067117   
H667     H      0.565460000000     0.628120000000     0.764840000000     0.0592487  
H668     H      0.554640000000     0.599300000000     0.714480000000     0.0475623  
H669     H      0.980430000000     0.656980000000     0.789520000000     0.0666638  
H670     H      0.971330000000     0.628140000000     0.739230000000     0.0372343  
H671     H      0.566850000000     0.655580000000     0.731410000000     0.0503567  
H672     H      0.523070000000     0.627060000000     0.703760000000     0.0577374  
N1       N      0.415290000000     0.255390000000     0.508550000000    -0.187277   
N2       N      0.350410000000     0.239510000000     0.999610000000    -0.175485   
N3       N      0.102660000000     0.268720000000     0.522540000000    -0.186833   
N4       N      0.168960000000     0.278400000000     0.030700000000    -0.17487    
N5       N      0.262080000000     0.413040000000     0.513980000000    -0.187682   
N6       N      0.274770000000     0.348030000000     0.506870000000    -0.174164   
N7       N      0.246870000000     0.097280000000     0.525560000000    -0.186831   
N8       N      0.245830000000     0.165530000000     0.523720000000    -0.169089   
N9       N      0.273240000000     0.494630000000     0.363000000000    -0.187428   
N10      N      0.258460000000     0.511700000000     0.426290000000    -0.171825   
N11      N      0.266660000000     0.511430000000     0.176380000000    -0.188624   
N12      N      0.250580000000     0.994940000000     0.113410000000    -0.171492   
N13      N      0.517420000000     0.257440000000     0.422540000000    -0.182123   
N14      N      0.520130000000     0.253310000000     0.353550000000    -0.168047   
N15      N      0.529200000000     0.248090000000     0.166330000000    -0.188853   
N16      N      0.000300000000     0.267870000000     0.109400000000    -0.174706   
N17      N      0.112490000000     0.513670000000     0.249140000000    -0.187626   
N18      N      0.174310000000     0.999360000000     0.271910000000    -0.165243   
N19      N      0.425190000000     0.495510000000     0.244310000000    -0.184832   
N20      N      0.362710000000     0.006210000000     0.267000000000    -0.169185   
N21      N      0.025200000000     0.412280000000     0.251270000000    -0.182469   
N22      N      0.024350000000     0.344120000000     0.256570000000    -0.166669   
N23      N      0.510980000000     0.096840000000     0.242810000000    -0.184632   
N24      N      0.024980000000     0.158830000000     0.262300000000    -0.170485   
N25      N      0.415290000000     0.255390000000     0.008550000000    -0.187387   
N26      N      0.350410000000     0.239510000000     0.499610000000    -0.175713   
N27      N      0.102660000000     0.268720000000     0.022540000000    -0.186932   
N28      N      0.168960000000     0.278400000000     0.530710000000    -0.174927   
N29      N      0.262080000000     0.413040000000     0.013980000000    -0.187781   
N30      N      0.274770000000     0.348030000000     0.006870000000    -0.174269   
N31      N      0.246870000000     0.097280000000     0.025560000000    -0.186802   
N32      N      0.245830000000     0.165530000000     0.023720000000    -0.169157   
N33      N      0.273240000000     0.494630000000     0.863000000000    -0.187428   
N34      N      0.258460000000     0.511700000000     0.926290000000    -0.171811   
N35      N      0.266660000000     0.511430000000     0.676380000000    -0.18862    
N36      N      0.250580000000     0.994940000000     0.613410000000    -0.171495   
N37      N      0.517420000000     0.257440000000     0.922540000000    -0.18211    
N38      N      0.520130000000     0.253310000000     0.853550000000    -0.168047   
N39      N      0.529200000000     0.248090000000     0.666330000000    -0.188855   
N40      N      0.000300000000     0.267870000000     0.609400000000    -0.174699   
N41      N      0.112490000000     0.513670000000     0.749140000000    -0.187627   
N42      N      0.174310000000     0.999360000000     0.771910000000    -0.165243   
N43      N      0.425190000000     0.495510000000     0.744310000000    -0.184895   
N44      N      0.362710000000     0.006210000000     0.767000000000    -0.169183   
N45      N      0.025200000000     0.412280000000     0.751270000000    -0.182488   
N46      N      0.024350000000     0.344120000000     0.756570000000    -0.166667   
N47      N      0.510980000000     0.096840000000     0.742810000000    -0.184632   
N48      N      0.024980000000     0.158830000000     0.762300000000    -0.170488   
N49      N      0.415290000000     0.755390000000     0.508550000000    -0.187237   
N50      N      0.350410000000     0.739510000000     0.999610000000    -0.175481   
N51      N      0.102660000000     0.768720000000     0.522540000000    -0.186741   
N52      N      0.168960000000     0.778400000000     0.030700000000    -0.174819   
N53      N      0.262080000000     0.913040000000     0.513980000000    -0.187209   
N54      N      0.274770000000     0.848030000000     0.506870000000    -0.174149   
N55      N      0.246870000000     0.597280000000     0.525560000000    -0.186874   
N56      N      0.245830000000     0.665530000000     0.523720000000    -0.1691     
N57      N      0.273240000000     0.994630000000     0.363000000000    -0.183844   
N58      N      0.258460000000     0.011700000000     0.426290000000    -0.176499   
N59      N      0.266660000000     0.011430000000     0.176380000000    -0.192065   
N60      N      0.250580000000     0.494940000000     0.113410000000    -0.174201   
N61      N      0.517420000000     0.757440000000     0.422540000000    -0.182148   
N62      N      0.520130000000     0.753320000000     0.353550000000    -0.168045   
N63      N      0.529200000000     0.748100000000     0.166330000000    -0.188858   
N64      N      0.000300000000     0.767870000000     0.109400000000    -0.174665   
N65      N      0.112490000000     0.013670000000     0.249140000000    -0.191838   
N66      N      0.174310000000     0.499360000000     0.271910000000    -0.173915   
N67      N      0.425190000000     0.995510000000     0.244310000000    -0.182152   
N68      N      0.362710000000     0.506210000000     0.267000000000    -0.166799   
N69      N      0.025200000000     0.912280000000     0.251270000000    -0.181879   
N70      N      0.024350000000     0.844120000000     0.256570000000    -0.166691   
N71      N      0.510980000000     0.596840000000     0.242810000000    -0.184709   
N72      N      0.024980000000     0.658830000000     0.262300000000    -0.170478   
N73      N      0.415290000000     0.755390000000     0.008550000000    -0.187347   
N74      N      0.350410000000     0.739510000000     0.499610000000    -0.175708   
N75      N      0.102660000000     0.768720000000     0.022540000000    -0.18684    
N76      N      0.168960000000     0.778400000000     0.530710000000    -0.174876   
N77      N      0.262080000000     0.913040000000     0.013980000000    -0.187308   
N78      N      0.274770000000     0.848030000000     0.006870000000    -0.174253   
N79      N      0.246870000000     0.597280000000     0.025560000000    -0.186845   
N80      N      0.245830000000     0.665530000000     0.023720000000    -0.169167   
N81      N      0.273240000000     0.994630000000     0.863000000000    -0.183844   
N82      N      0.258460000000     0.011700000000     0.926290000000    -0.176484   
N83      N      0.266660000000     0.011430000000     0.676380000000    -0.192061   
N84      N      0.250580000000     0.494940000000     0.613410000000    -0.174205   
N85      N      0.517420000000     0.757440000000     0.922540000000    -0.182135   
N86      N      0.520130000000     0.753320000000     0.853550000000    -0.168045   
N87      N      0.529200000000     0.748100000000     0.666330000000    -0.18886    
N88      N      0.000300000000     0.767870000000     0.609400000000    -0.174657   
N89      N      0.112490000000     0.013670000000     0.749140000000    -0.191839   
N90      N      0.174310000000     0.499360000000     0.771910000000    -0.173915   
N91      N      0.425190000000     0.995510000000     0.744310000000    -0.182216   
N92      N      0.362710000000     0.506210000000     0.767000000000    -0.166797   
N93      N      0.025200000000     0.912280000000     0.751270000000    -0.181898   
N94      N      0.024350000000     0.844120000000     0.756570000000    -0.166689   
N95      N      0.510980000000     0.596840000000     0.742810000000    -0.184709   
N96      N      0.024980000000     0.658830000000     0.762300000000    -0.170482   
N97      N      0.915290000000     0.255390000000     0.508550000000    -0.187264   
N98      N      0.850410000000     0.239510000000     0.999610000000    -0.175485   
N99      N      0.602660000000     0.268720000000     0.522540000000    -0.186833   
N100     N      0.668960000000     0.278400000000     0.030700000000    -0.17487    
N101     N      0.762080000000     0.413040000000     0.513980000000    -0.187667   
N102     N      0.774770000000     0.348030000000     0.506870000000    -0.174163   
N103     N      0.746870000000     0.097280000000     0.525560000000    -0.186824   
N104     N      0.745830000000     0.165530000000     0.523720000000    -0.169089   
N105     N      0.773240000000     0.494630000000     0.363000000000    -0.187427   
N106     N      0.758460000000     0.511700000000     0.426290000000    -0.171835   
N107     N      0.766660000000     0.511430000000     0.176380000000    -0.188642   
N108     N      0.750580000000     0.994940000000     0.113410000000    -0.171484   
N109     N      0.017420000000     0.257440000000     0.422540000000    -0.182112   
N110     N      0.020130000000     0.253310000000     0.353550000000    -0.168104   
N111     N      0.029190000000     0.248090000000     0.166330000000    -0.188849   
N112     N      0.500290000000     0.267870000000     0.109400000000    -0.174612   
N113     N      0.612490000000     0.513670000000     0.249140000000    -0.187625   
N114     N      0.674310000000     0.999360000000     0.271910000000    -0.165244   
N115     N      0.925190000000     0.495510000000     0.244310000000    -0.1848     
N116     N      0.862710000000     0.006210000000     0.267000000000    -0.169264   
N117     N      0.525200000000     0.412280000000     0.251270000000    -0.182493   
N118     N      0.524350000000     0.344120000000     0.256570000000    -0.166611   
N119     N      0.010980000000     0.096840000000     0.242810000000    -0.184694   
N120     N      0.524980000000     0.158830000000     0.262300000000    -0.170425   
N121     N      0.915290000000     0.255390000000     0.008550000000    -0.187374   
N122     N      0.850410000000     0.239510000000     0.499610000000    -0.175713   
N123     N      0.602660000000     0.268720000000     0.022540000000    -0.186932   
N124     N      0.668960000000     0.278400000000     0.530710000000    -0.174927   
N125     N      0.762080000000     0.413040000000     0.013980000000    -0.187766   
N126     N      0.774770000000     0.348030000000     0.006870000000    -0.174268   
N127     N      0.746870000000     0.097280000000     0.025560000000    -0.186795   
N128     N      0.745830000000     0.165530000000     0.023720000000    -0.169157   
N129     N      0.773240000000     0.494630000000     0.863000000000    -0.187427   
N130     N      0.758460000000     0.511700000000     0.926290000000    -0.171821   
N131     N      0.766660000000     0.511430000000     0.676380000000    -0.188638   
N132     N      0.750580000000     0.994940000000     0.613410000000    -0.171487   
N133     N      0.017420000000     0.257440000000     0.922540000000    -0.182099   
N134     N      0.020130000000     0.253310000000     0.853550000000    -0.168105   
N135     N      0.029190000000     0.248090000000     0.666330000000    -0.188851   
N136     N      0.500290000000     0.267870000000     0.609400000000    -0.174604   
N137     N      0.612490000000     0.513670000000     0.749140000000    -0.187626   
N138     N      0.674310000000     0.999360000000     0.771910000000    -0.165244   
N139     N      0.925190000000     0.495510000000     0.744310000000    -0.184863   
N140     N      0.862710000000     0.006210000000     0.767000000000    -0.169262   
N141     N      0.525200000000     0.412280000000     0.751270000000    -0.182512   
N142     N      0.524350000000     0.344120000000     0.756570000000    -0.166609   
N143     N      0.010980000000     0.096840000000     0.742810000000    -0.184693   
N144     N      0.524980000000     0.158830000000     0.762300000000    -0.170429   
N145     N      0.915290000000     0.755390000000     0.508550000000    -0.187224   
N146     N      0.850410000000     0.739510000000     0.999610000000    -0.175481   
N147     N      0.602660000000     0.768720000000     0.522540000000    -0.186742   
N148     N      0.668960000000     0.778400000000     0.030700000000    -0.174819   
N149     N      0.762080000000     0.913040000000     0.513980000000    -0.187195   
N150     N      0.774770000000     0.848030000000     0.506870000000    -0.174148   
N151     N      0.746870000000     0.597280000000     0.525560000000    -0.186867   
N152     N      0.745830000000     0.665530000000     0.523720000000    -0.1691     
N153     N      0.773240000000     0.994630000000     0.363000000000    -0.183843   
N154     N      0.758460000000     0.011700000000     0.426290000000    -0.17651    
N155     N      0.766660000000     0.011430000000     0.176380000000    -0.192084   
N156     N      0.750580000000     0.494940000000     0.113410000000    -0.174193   
N157     N      0.017420000000     0.757440000000     0.422540000000    -0.182137   
N158     N      0.020130000000     0.753320000000     0.353550000000    -0.168102   
N159     N      0.029190000000     0.748100000000     0.166330000000    -0.188854   
N160     N      0.500290000000     0.767870000000     0.109400000000    -0.17457    
N161     N      0.612490000000     0.013670000000     0.249140000000    -0.191838   
N162     N      0.674310000000     0.499360000000     0.271910000000    -0.173916   
N163     N      0.925190000000     0.995510000000     0.244310000000    -0.182121   
N164     N      0.862710000000     0.506210000000     0.267000000000    -0.16688    
N165     N      0.525200000000     0.912280000000     0.251270000000    -0.181903   
N166     N      0.524350000000     0.844120000000     0.256570000000    -0.166634   
N167     N      0.010980000000     0.596840000000     0.242810000000    -0.184771   
N168     N      0.524980000000     0.658830000000     0.262300000000    -0.170419   
N169     N      0.915290000000     0.755390000000     0.008550000000    -0.187334   
N170     N      0.850410000000     0.739510000000     0.499610000000    -0.175708   
N171     N      0.602660000000     0.768720000000     0.022540000000    -0.186841   
N172     N      0.668960000000     0.778400000000     0.530710000000    -0.174876   
N173     N      0.762080000000     0.913040000000     0.013980000000    -0.187293   
N174     N      0.774770000000     0.848030000000     0.006870000000    -0.174253   
N175     N      0.746870000000     0.597280000000     0.025560000000    -0.186838   
N176     N      0.745830000000     0.665530000000     0.023720000000    -0.169168   
N177     N      0.773240000000     0.994630000000     0.863000000000    -0.183843   
N178     N      0.758460000000     0.011700000000     0.926290000000    -0.176495   
N179     N      0.766660000000     0.011430000000     0.676380000000    -0.19208    
N180     N      0.750580000000     0.494940000000     0.613410000000    -0.174197   
N181     N      0.017420000000     0.757440000000     0.922540000000    -0.182124   
N182     N      0.020130000000     0.753320000000     0.853550000000    -0.168102   
N183     N      0.029190000000     0.748100000000     0.666330000000    -0.188856   
N184     N      0.500290000000     0.767870000000     0.609400000000    -0.174563   
N185     N      0.612490000000     0.013670000000     0.749140000000    -0.191838   
N186     N      0.674310000000     0.499360000000     0.771910000000    -0.173916   
N187     N      0.925190000000     0.995510000000     0.744310000000    -0.182184   
N188     N      0.862710000000     0.506210000000     0.767000000000    -0.166878   
N189     N      0.525200000000     0.912280000000     0.751270000000    -0.181922   
N190     N      0.524350000000     0.844120000000     0.756570000000    -0.166632   
N191     N      0.010980000000     0.596840000000     0.742810000000    -0.18477    
N192     N      0.524980000000     0.658830000000     0.762300000000    -0.170422   
O1       O      0.019540000000     0.048790000000     0.218530000000    -0.550556   
O2       O      0.519580000000     0.458440000000     0.222300000000    -0.539451   
O3       O      0.473560000000     0.003510000000     0.218990000000    -0.554601   
O4       O      0.065510000000     0.503860000000     0.221790000000    -0.551804   
O5       O      0.063250000000     0.013630000000     0.274710000000    -0.532332   
O6       O      0.472640000000     0.497780000000     0.272620000000    -0.528654   
O7       O      0.025740000000     0.461190000000     0.275790000000    -0.544192   
O8       O      0.510030000000     0.050280000000     0.271580000000    -0.52546    
O9       O      0.498010000000     0.206430000000     0.263810000000    -0.545933   
O10      O      0.498000000000     0.296250000000     0.253480000000    -0.551592   
O11      O      0.500130000000     0.246220000000     0.213220000000    -0.540496   
O12      O      0.495900000000     0.256290000000     0.304050000000    -0.553411   
O13      O      0.049410000000     0.248810000000     0.306810000000    -0.547483   
O14      O      0.053580000000     0.254390000000     0.215330000000    -0.549969   
O15      O      0.051130000000     0.296840000000     0.263720000000    -0.545801   
O16      O      0.051810000000     0.206440000000     0.258260000000    -0.547432   
O17      O      0.315310000000     0.478110000000     0.269910000000    -0.543535   
O18      O      0.223600000000     0.475360000000     0.264960000000    -0.555078   
O19      O      0.271790000000     0.480930000000     0.221850000000    -0.537368   
O20      O      0.267210000000     0.472690000000     0.313010000000    -0.551876   
O21      O      0.273540000000     0.025340000000     0.317420000000    -0.539395   
O22      O      0.261880000000     0.032990000000     0.226740000000    -0.549334   
O23      O      0.221920000000     0.027010000000     0.277560000000    -0.546908   
O24      O      0.313300000000     0.031130000000     0.266520000000    -0.537446   
O25      O      0.279250000000     0.501190000000     0.066850000000    -0.557862   
O26      O      0.282980000000     0.012430000000     0.476070000000    -0.551258   
O27      O      0.277220000000     0.051700000000     0.026980000000    -0.556688   
O28      O      0.285020000000     0.462230000000     0.517320000000    -0.554025   
O29      O      0.230990000000     0.458000000000     0.016430000000    -0.539924   
O30      O      0.223730000000     0.048060000000     0.519610000000    -0.542239   
O31      O      0.229610000000     0.504410000000     0.472860000000    -0.544334   
O32      O      0.225170000000     0.001520000000     0.064540000000    -0.553668   
O33      O      0.504150000000     0.238700000000     0.063140000000    -0.55712    
O34      O      0.017090000000     0.233680000000     0.472520000000    -0.549927   
O35      O      0.056120000000     0.239410000000     0.024200000000    -0.554748   
O36      O      0.465210000000     0.232740000000     0.512810000000    -0.556035   
O37      O      0.461250000000     0.285830000000     0.011060000000    -0.538022   
O38      O      0.052970000000     0.291910000000     0.516120000000    -0.533347   
O39      O      0.509410000000     0.286210000000     0.468590000000    -0.530211   
O40      O      0.004980000000     0.291810000000     0.059910000000    -0.551617   
O41      O      0.256500000000     0.214040000000     0.046140000000    -0.555564   
O42      O      0.273260000000     0.302540000000     0.037740000000    -0.55131    
O43      O      0.219730000000     0.266810000000     0.049820000000    -0.549593   
O44      O      0.308620000000     0.248610000000     0.034400000000    -0.555487   
O45      O      0.298890000000     0.247840000000     0.481310000000    -0.555455   
O46      O      0.210130000000     0.264980000000     0.496750000000    -0.558012   
O47      O      0.261780000000     0.299830000000     0.485130000000    -0.558916   
O48      O      0.245990000000     0.211240000000     0.493290000000    -0.553214   
O49      O      0.019540000000     0.048790000000     0.718530000000    -0.550565   
O50      O      0.519580000000     0.458440000000     0.722300000000    -0.539462   
O51      O      0.473560000000     0.003510000000     0.719000000000    -0.554814   
O52      O      0.065510000000     0.503860000000     0.721790000000    -0.551818   
O53      O      0.063250000000     0.013630000000     0.774710000000    -0.532339   
O54      O      0.472640000000     0.497780000000     0.772620000000    -0.528731   
O55      O      0.025740000000     0.461190000000     0.775790000000    -0.544196   
O56      O      0.510030000000     0.050280000000     0.771580000000    -0.525462   
O57      O      0.498010000000     0.206430000000     0.763810000000    -0.545933   
O58      O      0.498000000000     0.296250000000     0.753480000000    -0.551592   
O59      O      0.500130000000     0.246220000000     0.713220000000    -0.540498   
O60      O      0.495900000000     0.256290000000     0.804050000000    -0.553411   
O61      O      0.049410000000     0.248810000000     0.806810000000    -0.547483   
O62      O      0.053580000000     0.254390000000     0.715330000000    -0.54997    
O63      O      0.051130000000     0.296840000000     0.763720000000    -0.545801   
O64      O      0.051810000000     0.206440000000     0.758260000000    -0.547431   
O65      O      0.315310000000     0.478110000000     0.769910000000    -0.543534   
O66      O      0.223600000000     0.475360000000     0.764960000000    -0.555078   
O67      O      0.271790000000     0.480930000000     0.721850000000    -0.537365   
O68      O      0.267210000000     0.472690000000     0.813010000000    -0.551876   
O69      O      0.273540000000     0.025340000000     0.817420000000    -0.539394   
O70      O      0.261880000000     0.032990000000     0.726740000000    -0.549335   
O71      O      0.221920000000     0.027010000000     0.777560000000    -0.546908   
O72      O      0.313300000000     0.031130000000     0.766520000000    -0.537446   
O73      O      0.279250000000     0.501190000000     0.566850000000    -0.557898   
O74      O      0.282980000000     0.012430000000     0.976070000000    -0.551109   
O75      O      0.277220000000     0.051700000000     0.526980000000    -0.556692   
O76      O      0.285020000000     0.462230000000     0.017320000000    -0.554038   
O77      O      0.230990000000     0.458000000000     0.516430000000    -0.539901   
O78      O      0.223730000000     0.048060000000     0.019610000000    -0.542248   
O79      O      0.229610000000     0.504410000000     0.972860000000    -0.544189   
O80      O      0.225170000000     0.001520000000     0.564540000000    -0.553702   
O81      O      0.504150000000     0.238700000000     0.563140000000    -0.557152   
O82      O      0.017090000000     0.233680000000     0.972520000000    -0.54978    
O83      O      0.056120000000     0.239410000000     0.524200000000    -0.55474    
O84      O      0.465210000000     0.232740000000     0.012810000000    -0.556049   
O85      O      0.461250000000     0.285830000000     0.511060000000    -0.537997   
O86      O      0.052970000000     0.291910000000     0.016120000000    -0.533377   
O87      O      0.509410000000     0.286210000000     0.968590000000    -0.53007    
O88      O      0.004980000000     0.291810000000     0.559910000000    -0.551648   
O89      O      0.256500000000     0.214040000000     0.546140000000    -0.555625   
O90      O      0.273260000000     0.302540000000     0.537750000000    -0.551193   
O91      O      0.219730000000     0.266810000000     0.549820000000    -0.54965    
O92      O      0.308620000000     0.248610000000     0.534400000000    -0.555585   
O93      O      0.298890000000     0.247840000000     0.981310000000    -0.555268   
O94      O      0.210130000000     0.264980000000     0.996750000000    -0.557846   
O95      O      0.261780000000     0.299830000000     0.985130000000    -0.558842   
O96      O      0.245990000000     0.211240000000     0.993290000000    -0.553063   
O97      O      0.019540000000     0.548790000000     0.218530000000    -0.551477   
O98      O      0.519580000000     0.958440000000     0.222300000000    -0.534548   
O99      O      0.473560000000     0.503510000000     0.218990000000    -0.548878   
O100     O      0.065510000000     0.003860000000     0.221790000000    -0.553106   
O101     O      0.063250000000     0.513630000000     0.274710000000    -0.53321    
O102     O      0.472640000000     0.997780000000     0.272620000000    -0.524113   
O103     O      0.025740000000     0.961190000000     0.275790000000    -0.538315   
O104     O      0.510030000000     0.550280000000     0.271580000000    -0.527075   
O105     O      0.498010000000     0.706430000000     0.263810000000    -0.545939   
O106     O      0.498000000000     0.796250000000     0.253480000000    -0.55158    
O107     O      0.500130000000     0.746220000000     0.213220000000    -0.540504   
O108     O      0.495900000000     0.756290000000     0.304050000000    -0.553405   
O109     O      0.049410000000     0.748810000000     0.306810000000    -0.547479   
O110     O      0.053580000000     0.754390000000     0.215330000000    -0.549972   
O111     O      0.051130000000     0.796840000000     0.263720000000    -0.545785   
O112     O      0.051810000000     0.706440000000     0.258260000000    -0.547441   
O113     O      0.315310000000     0.978110000000     0.269910000000    -0.538163   
O114     O      0.223600000000     0.975360000000     0.264960000000    -0.548288   
O115     O      0.271790000000     0.980930000000     0.221850000000    -0.532184   
O116     O      0.267210000000     0.972690000000     0.313010000000    -0.553312   
O117     O      0.273540000000     0.525340000000     0.317420000000    -0.534799   
O118     O      0.261880000000     0.532990000000     0.226740000000    -0.551433   
O119     O      0.221920000000     0.527010000000     0.277560000000    -0.550149   
O120     O      0.313300000000     0.531130000000     0.266520000000    -0.539632   
O121     O      0.279250000000     0.001190000000     0.066850000000    -0.566138   
O122     O      0.282980000000     0.512440000000     0.476070000000    -0.550553   
O123     O      0.277220000000     0.551700000000     0.026980000000    -0.557581   
O124     O      0.285020000000     0.962230000000     0.517320000000    -0.548774   
O125     O      0.230990000000     0.958000000000     0.016430000000    -0.534844   
O126     O      0.223730000000     0.548060000000     0.519610000000    -0.543196   
O127     O      0.229610000000     0.004410000000     0.472860000000    -0.545893   
O128     O      0.225170000000     0.501520000000     0.064540000000    -0.546101   
O129     O      0.504150000000     0.738700000000     0.063140000000    -0.557081   
O130     O      0.017090000000     0.733690000000     0.472520000000    -0.550065   
O131     O      0.056120000000     0.739410000000     0.024200000000    -0.55463    
O132     O      0.465210000000     0.732740000000     0.512810000000    -0.555858   
O133     O      0.461250000000     0.785830000000     0.011060000000    -0.538038   
O134     O      0.052970000000     0.791920000000     0.516120000000    -0.533031   
O135     O      0.509410000000     0.786210000000     0.468590000000    -0.530225   
O136     O      0.004980000000     0.791810000000     0.059910000000    -0.551483   
O137     O      0.256500000000     0.714040000000     0.046140000000    -0.55558    
O138     O      0.273260000000     0.802540000000     0.037740000000    -0.551276   
O139     O      0.219730000000     0.766810000000     0.049820000000    -0.549596   
O140     O      0.308620000000     0.748610000000     0.034400000000    -0.555481   
O141     O      0.298890000000     0.747840000000     0.481310000000    -0.555455   
O142     O      0.210130000000     0.764980000000     0.496750000000    -0.558037   
O143     O      0.261780000000     0.799830000000     0.485130000000    -0.558898   
O144     O      0.245990000000     0.711240000000     0.493290000000    -0.553225   
O145     O      0.019540000000     0.548790000000     0.718530000000    -0.551486   
O146     O      0.519580000000     0.958440000000     0.722300000000    -0.53456    
O147     O      0.473560000000     0.503510000000     0.719000000000    -0.549087   
O148     O      0.065510000000     0.003860000000     0.721790000000    -0.55312    
O149     O      0.063250000000     0.513630000000     0.774710000000    -0.533217   
O150     O      0.472640000000     0.997780000000     0.772620000000    -0.524192   
O151     O      0.025740000000     0.961190000000     0.775790000000    -0.538319   
O152     O      0.510030000000     0.550280000000     0.771580000000    -0.527076   
O153     O      0.498010000000     0.706430000000     0.763810000000    -0.545939   
O154     O      0.498000000000     0.796250000000     0.753480000000    -0.55158    
O155     O      0.500130000000     0.746220000000     0.713220000000    -0.540505   
O156     O      0.495900000000     0.756290000000     0.804050000000    -0.553404   
O157     O      0.049410000000     0.748810000000     0.806810000000    -0.547479   
O158     O      0.053580000000     0.754390000000     0.715330000000    -0.549973   
O159     O      0.051130000000     0.796840000000     0.763720000000    -0.545786   
O160     O      0.051810000000     0.706440000000     0.758260000000    -0.547441   
O161     O      0.315310000000     0.978110000000     0.769910000000    -0.538161   
O162     O      0.223600000000     0.975360000000     0.764960000000    -0.548288   
O163     O      0.271790000000     0.980930000000     0.721850000000    -0.532181   
O164     O      0.267210000000     0.972690000000     0.813010000000    -0.553312   
O165     O      0.273540000000     0.525340000000     0.817420000000    -0.534799   
O166     O      0.261880000000     0.532990000000     0.726740000000    -0.551434   
O167     O      0.221920000000     0.527010000000     0.777560000000    -0.550149   
O168     O      0.313300000000     0.531130000000     0.766520000000    -0.539632   
O169     O      0.279250000000     0.001190000000     0.566850000000    -0.566174   
O170     O      0.282980000000     0.512440000000     0.976070000000    -0.550403   
O171     O      0.277220000000     0.551700000000     0.526980000000    -0.557585   
O172     O      0.285020000000     0.962230000000     0.017320000000    -0.548787   
O173     O      0.230990000000     0.958000000000     0.516430000000    -0.534821   
O174     O      0.223730000000     0.548060000000     0.019610000000    -0.543205   
O175     O      0.229610000000     0.004410000000     0.972860000000    -0.545749   
O176     O      0.225170000000     0.501520000000     0.564540000000    -0.546135   
O177     O      0.504150000000     0.738700000000     0.563140000000    -0.557113   
O178     O      0.017090000000     0.733690000000     0.972520000000    -0.549918   
O179     O      0.056120000000     0.739410000000     0.524200000000    -0.554623   
O180     O      0.465210000000     0.732740000000     0.012810000000    -0.555872   
O181     O      0.461250000000     0.785830000000     0.511060000000    -0.538014   
O182     O      0.052970000000     0.791920000000     0.016120000000    -0.533061   
O183     O      0.509410000000     0.786210000000     0.968590000000    -0.530085   
O184     O      0.004980000000     0.791810000000     0.559910000000    -0.551514   
O185     O      0.256500000000     0.714040000000     0.546140000000    -0.555641   
O186     O      0.273260000000     0.802540000000     0.537750000000    -0.551159   
O187     O      0.219730000000     0.766810000000     0.549820000000    -0.549652   
O188     O      0.308620000000     0.748610000000     0.534400000000    -0.555578   
O189     O      0.298890000000     0.747840000000     0.981310000000    -0.555268   
O190     O      0.210130000000     0.764980000000     0.996750000000    -0.557872   
O191     O      0.261780000000     0.799830000000     0.985130000000    -0.558824   
O192     O      0.245990000000     0.711240000000     0.993290000000    -0.553075   
O193     O      0.519540000000     0.048790000000     0.218530000000    -0.550552   
O194     O      0.019580000000     0.458440000000     0.222300000000    -0.539459   
O195     O      0.973560000000     0.003510000000     0.218990000000    -0.554483   
O196     O      0.565510000000     0.503860000000     0.221790000000    -0.55183    
O197     O      0.563250000000     0.013630000000     0.274710000000    -0.532359   
O198     O      0.972640000000     0.497780000000     0.272620000000    -0.528538   
O199     O      0.525740000000     0.461190000000     0.275790000000    -0.544194   
O200     O      0.010030000000     0.050280000000     0.271580000000    -0.525483   
O201     O      0.998010000000     0.206430000000     0.263810000000    -0.545823   
O202     O      0.998000000000     0.296250000000     0.253480000000    -0.551373   
O203     O      0.000130000000     0.246220000000     0.213220000000    -0.540634   
O204     O      0.995900000000     0.256290000000     0.304050000000    -0.553313   
O205     O      0.549410000000     0.248810000000     0.306810000000    -0.547527   
O206     O      0.553580000000     0.254390000000     0.215330000000    -0.54997    
O207     O      0.551130000000     0.296840000000     0.263720000000    -0.545741   
O208     O      0.551810000000     0.206440000000     0.258260000000    -0.547476   
O209     O      0.815310000000     0.478110000000     0.269910000000    -0.543455   
O210     O      0.723600000000     0.475360000000     0.264960000000    -0.555079   
O211     O      0.771790000000     0.480930000000     0.221850000000    -0.53737    
O212     O      0.767210000000     0.472690000000     0.313010000000    -0.551877   
O213     O      0.773540000000     0.025340000000     0.317420000000    -0.539395   
O214     O      0.761880000000     0.032990000000     0.226740000000    -0.549337   
O215     O      0.721920000000     0.027010000000     0.277560000000    -0.546909   
O216     O      0.813300000000     0.031130000000     0.266520000000    -0.53736    
O217     O      0.779250000000     0.501190000000     0.066850000000    -0.557864   
O218     O      0.782980000000     0.012430000000     0.476070000000    -0.551263   
O219     O      0.777220000000     0.051700000000     0.026980000000    -0.556807   
O220     O      0.785020000000     0.462230000000     0.517320000000    -0.554029   
O221     O      0.730990000000     0.458000000000     0.016430000000    -0.539914   
O222     O      0.723730000000     0.048060000000     0.519610000000    -0.542131   
O223     O      0.729610000000     0.504410000000     0.472860000000    -0.54433    
O224     O      0.725170000000     0.001520000000     0.064540000000    -0.55366    
O225     O      0.004150000000     0.238700000000     0.063140000000    -0.557157   
O226     O      0.517100000000     0.233680000000     0.472520000000    -0.549878   
O227     O      0.556120000000     0.239410000000     0.024200000000    -0.554753   
O228     O      0.965210000000     0.232740000000     0.512810000000    -0.555911   
O229     O      0.961250000000     0.285830000000     0.011060000000    -0.537905   
O230     O      0.552970000000     0.291910000000     0.516120000000    -0.533371   
O231     O      0.009410000000     0.286210000000     0.468590000000    -0.530229   
O232     O      0.504980000000     0.291810000000     0.059910000000    -0.551606   
O233     O      0.756500000000     0.214040000000     0.046140000000    -0.555564   
O234     O      0.773260000000     0.302540000000     0.037740000000    -0.551308   
O235     O      0.719730000000     0.266810000000     0.049820000000    -0.549594   
O236     O      0.808620000000     0.248610000000     0.034400000000    -0.555486   
O237     O      0.798890000000     0.247840000000     0.481310000000    -0.555455   
O238     O      0.710130000000     0.264980000000     0.496750000000    -0.558012   
O239     O      0.761780000000     0.299830000000     0.485130000000    -0.558917   
O240     O      0.745990000000     0.211240000000     0.493290000000    -0.553214   
O241     O      0.519540000000     0.048790000000     0.718530000000    -0.550561   
O242     O      0.019580000000     0.458440000000     0.722300000000    -0.539471   
O243     O      0.973560000000     0.003510000000     0.719000000000    -0.554696   
O244     O      0.565510000000     0.503860000000     0.721790000000    -0.551843   
O245     O      0.563250000000     0.013630000000     0.774710000000    -0.532366   
O246     O      0.972640000000     0.497780000000     0.772620000000    -0.528616   
O247     O      0.525740000000     0.461190000000     0.775790000000    -0.544198   
O248     O      0.010030000000     0.050280000000     0.771580000000    -0.525485   
O249     O      0.998010000000     0.206430000000     0.763810000000    -0.545824   
O250     O      0.998000000000     0.296250000000     0.753480000000    -0.551373   
O251     O      0.000130000000     0.246220000000     0.713220000000    -0.540635   
O252     O      0.995900000000     0.256290000000     0.804050000000    -0.553313   
O253     O      0.549410000000     0.248810000000     0.806810000000    -0.547527   
O254     O      0.553580000000     0.254390000000     0.715330000000    -0.549971   
O255     O      0.551130000000     0.296840000000     0.763720000000    -0.545742   
O256     O      0.551810000000     0.206440000000     0.758260000000    -0.547475   
O257     O      0.815310000000     0.478110000000     0.769910000000    -0.543453   
O258     O      0.723600000000     0.475360000000     0.764960000000    -0.555079   
O259     O      0.771790000000     0.480930000000     0.721850000000    -0.537366   
O260     O      0.767210000000     0.472690000000     0.813010000000    -0.551877   
O261     O      0.773540000000     0.025340000000     0.817420000000    -0.539394   
O262     O      0.761880000000     0.032990000000     0.726740000000    -0.549338   
O263     O      0.721920000000     0.027010000000     0.777560000000    -0.546909   
O264     O      0.813300000000     0.031130000000     0.766520000000    -0.53736    
O265     O      0.779250000000     0.501190000000     0.566850000000    -0.557901   
O266     O      0.782980000000     0.012430000000     0.976070000000    -0.551113   
O267     O      0.777220000000     0.051700000000     0.526980000000    -0.55681    
O268     O      0.785020000000     0.462230000000     0.017320000000    -0.554042   
O269     O      0.730990000000     0.458000000000     0.516430000000    -0.539892   
O270     O      0.723730000000     0.048060000000     0.019610000000    -0.542139   
O271     O      0.729610000000     0.504410000000     0.972860000000    -0.544185   
O272     O      0.725170000000     0.001520000000     0.564540000000    -0.553694   
O273     O      0.004150000000     0.238700000000     0.563140000000    -0.55719    
O274     O      0.517100000000     0.233680000000     0.972520000000    -0.54973    
O275     O      0.556120000000     0.239410000000     0.524200000000    -0.554746   
O276     O      0.965210000000     0.232740000000     0.012810000000    -0.555925   
O277     O      0.961250000000     0.285830000000     0.511060000000    -0.537881   
O278     O      0.552970000000     0.291910000000     0.016120000000    -0.533401   
O279     O      0.009410000000     0.286210000000     0.968590000000    -0.530088   
O280     O      0.504980000000     0.291810000000     0.559910000000    -0.551637   
O281     O      0.756500000000     0.214040000000     0.546140000000    -0.555625   
O282     O      0.773260000000     0.302540000000     0.537750000000    -0.551191   
O283     O      0.719730000000     0.266810000000     0.549820000000    -0.549651   
O284     O      0.808620000000     0.248610000000     0.534400000000    -0.555584   
O285     O      0.798890000000     0.247840000000     0.981310000000    -0.555267   
O286     O      0.710130000000     0.264980000000     0.996750000000    -0.557846   
O287     O      0.761780000000     0.299830000000     0.985130000000    -0.558843   
O288     O      0.745990000000     0.211240000000     0.993290000000    -0.553063   
O289     O      0.519540000000     0.548790000000     0.218530000000    -0.551472   
O290     O      0.019580000000     0.958440000000     0.222300000000    -0.534556   
O291     O      0.973560000000     0.503510000000     0.218990000000    -0.548761   
O292     O      0.565510000000     0.003860000000     0.221790000000    -0.553131   
O293     O      0.563250000000     0.513630000000     0.274710000000    -0.533238   
O294     O      0.972640000000     0.997780000000     0.272620000000    -0.523998   
O295     O      0.525740000000     0.961190000000     0.275790000000    -0.538316   
O296     O      0.010030000000     0.550280000000     0.271580000000    -0.527098   
O297     O      0.998010000000     0.706430000000     0.263810000000    -0.545829   
O298     O      0.998000000000     0.796250000000     0.253480000000    -0.551361   
O299     O      0.000130000000     0.746220000000     0.213220000000    -0.540641   
O300     O      0.995900000000     0.756290000000     0.304050000000    -0.553307   
O301     O      0.549410000000     0.748810000000     0.306810000000    -0.547523   
O302     O      0.553580000000     0.754390000000     0.215330000000    -0.549973   
O303     O      0.551130000000     0.796840000000     0.263720000000    -0.545725   
O304     O      0.551810000000     0.706440000000     0.258260000000    -0.547485   
O305     O      0.815310000000     0.978110000000     0.269910000000    -0.538085   
O306     O      0.723600000000     0.975360000000     0.264960000000    -0.548289   
O307     O      0.771790000000     0.980930000000     0.221850000000    -0.532185   
O308     O      0.767210000000     0.972690000000     0.313010000000    -0.553313   
O309     O      0.773540000000     0.525340000000     0.317420000000    -0.534799   
O310     O      0.761880000000     0.532990000000     0.226740000000    -0.551436   
O311     O      0.721920000000     0.527010000000     0.277560000000    -0.55015    
O312     O      0.813300000000     0.531130000000     0.266520000000    -0.539544   
O313     O      0.779250000000     0.001190000000     0.066850000000    -0.56614    
O314     O      0.782980000000     0.512440000000     0.476070000000    -0.550557   
O315     O      0.777220000000     0.551700000000     0.026980000000    -0.5577     
O316     O      0.785020000000     0.962230000000     0.517320000000    -0.548779   
O317     O      0.730990000000     0.958000000000     0.016430000000    -0.534835   
O318     O      0.723730000000     0.548060000000     0.519610000000    -0.543088   
O319     O      0.729610000000     0.004410000000     0.472860000000    -0.545889   
O320     O      0.725170000000     0.501520000000     0.064540000000    -0.546093   
O321     O      0.004150000000     0.738700000000     0.063140000000    -0.557118   
O322     O      0.517100000000     0.733690000000     0.472520000000    -0.550016   
O323     O      0.556120000000     0.739410000000     0.024200000000    -0.554636   
O324     O      0.965210000000     0.732740000000     0.512810000000    -0.555735   
O325     O      0.961250000000     0.785830000000     0.011060000000    -0.537922   
O326     O      0.552970000000     0.791920000000     0.516120000000    -0.533055   
O327     O      0.009410000000     0.786210000000     0.468590000000    -0.530243   
O328     O      0.504980000000     0.791810000000     0.059910000000    -0.551472   
O329     O      0.756500000000     0.714040000000     0.046140000000    -0.55558    
O330     O      0.773260000000     0.802540000000     0.037740000000    -0.551274   
O331     O      0.719730000000     0.766810000000     0.049820000000    -0.549596   
O332     O      0.808620000000     0.748610000000     0.034400000000    -0.55548    
O333     O      0.798890000000     0.747840000000     0.481310000000    -0.555455   
O334     O      0.710130000000     0.764980000000     0.496750000000    -0.558037   
O335     O      0.761780000000     0.799830000000     0.485130000000    -0.558899   
O336     O      0.745990000000     0.711240000000     0.493290000000    -0.553225   
O337     O      0.519540000000     0.548790000000     0.718530000000    -0.551481   
O338     O      0.019580000000     0.958440000000     0.722300000000    -0.534568   
O339     O      0.973560000000     0.503510000000     0.719000000000    -0.54897    
O340     O      0.565510000000     0.003860000000     0.721790000000    -0.553145   
O341     O      0.563250000000     0.513630000000     0.774710000000    -0.533244   
O342     O      0.972640000000     0.997780000000     0.772620000000    -0.524077   
O343     O      0.525740000000     0.961190000000     0.775790000000    -0.538321   
O344     O      0.010030000000     0.550280000000     0.771580000000    -0.527099   
O345     O      0.998010000000     0.706430000000     0.763810000000    -0.54583    
O346     O      0.998000000000     0.796250000000     0.753480000000    -0.551361   
O347     O      0.000130000000     0.746220000000     0.713220000000    -0.540642   
O348     O      0.995900000000     0.756290000000     0.804050000000    -0.553307   
O349     O      0.549410000000     0.748810000000     0.806810000000    -0.547523   
O350     O      0.553580000000     0.754390000000     0.715330000000    -0.549974   
O351     O      0.551130000000     0.796840000000     0.763720000000    -0.545726   
O352     O      0.551810000000     0.706440000000     0.758260000000    -0.547484   
O353     O      0.815310000000     0.978110000000     0.769910000000    -0.538083   
O354     O      0.723600000000     0.975360000000     0.764960000000    -0.548289   
O355     O      0.771790000000     0.980930000000     0.721850000000    -0.532183   
O356     O      0.767210000000     0.972690000000     0.813010000000    -0.553312   
O357     O      0.773540000000     0.525340000000     0.817420000000    -0.534799   
O358     O      0.761880000000     0.532990000000     0.726740000000    -0.551437   
O359     O      0.721920000000     0.527010000000     0.777560000000    -0.55015    
O360     O      0.813300000000     0.531130000000     0.766520000000    -0.539543   
O361     O      0.779250000000     0.001190000000     0.566850000000    -0.566176   
O362     O      0.782980000000     0.512440000000     0.976070000000    -0.550407   
O363     O      0.777220000000     0.551700000000     0.526980000000    -0.557703   
O364     O      0.785020000000     0.962230000000     0.017320000000    -0.548792   
O365     O      0.730990000000     0.958000000000     0.516430000000    -0.534812   
O366     O      0.723730000000     0.548060000000     0.019610000000    -0.543097   
O367     O      0.729610000000     0.004410000000     0.972860000000    -0.545745   
O368     O      0.725170000000     0.501520000000     0.564540000000    -0.546127   
O369     O      0.004150000000     0.738700000000     0.563140000000    -0.55715    
O370     O      0.517100000000     0.733690000000     0.972520000000    -0.549868   
O371     O      0.556120000000     0.739410000000     0.524200000000    -0.554629   
O372     O      0.965210000000     0.732740000000     0.012810000000    -0.555748   
O373     O      0.961250000000     0.785830000000     0.511060000000    -0.537897   
O374     O      0.552970000000     0.791920000000     0.016120000000    -0.533085   
O375     O      0.009410000000     0.786210000000     0.968590000000    -0.530103   
O376     O      0.504980000000     0.791810000000     0.559910000000    -0.551503   
O377     O      0.756500000000     0.714040000000     0.546140000000    -0.555641   
O378     O      0.773260000000     0.802540000000     0.537750000000    -0.551157   
O379     O      0.719730000000     0.766810000000     0.549820000000    -0.549653   
O380     O      0.808620000000     0.748610000000     0.534400000000    -0.555578   
O381     O      0.798890000000     0.747840000000     0.981310000000    -0.555268   
O382     O      0.710130000000     0.764980000000     0.996750000000    -0.557871   
O383     O      0.761780000000     0.799830000000     0.985130000000    -0.558825   
O384     O      0.745990000000     0.711240000000     0.993290000000    -0.553075   
V1       V      0.519630000000     0.003550000000     0.218100000000     1.39928    
V2       V      0.517860000000     0.505830000000     0.275990000000     1.41029    
V3       V      0.495710000000     0.251320000000     0.258530000000     1.41116    
V4       V      0.053820000000     0.251650000000     0.261160000000     1.38918    
V5       V      0.269520000000     0.474510000000     0.267220000000     1.4085     
V6       V      0.267530000000     0.031400000000     0.272290000000     1.38487    
V7       V      0.283290000000     0.007140000000     0.021810000000     1.40301    
V8       V      0.225160000000     0.002850000000     0.518380000000     1.39937    
V9       V      0.010820000000     0.233980000000     0.018210000000     1.40388    
V10      V      0.006980000000     0.291120000000     0.513910000000     1.4197     
V11      V      0.264830000000     0.258240000000     0.044180000000     1.3914     
V12      V      0.253830000000     0.255630000000     0.487020000000     1.41596    
V13      V      0.519630000000     0.003550000000     0.718100000000     1.39935    
V14      V      0.517860000000     0.505830000000     0.775990000000     1.41033    
V15      V      0.495710000000     0.251320000000     0.758530000000     1.41116    
V16      V      0.053820000000     0.251650000000     0.761160000000     1.38918    
V17      V      0.269520000000     0.474510000000     0.767220000000     1.40849    
V18      V      0.267530000000     0.031400000000     0.772290000000     1.38487    
V19      V      0.283290000000     0.007140000000     0.521810000000     1.4032     
V20      V      0.225160000000     0.002850000000     0.018380000000     1.39917    
V21      V      0.010820000000     0.233980000000     0.518210000000     1.40407    
V22      V      0.006980000000     0.291120000000     0.013910000000     1.4195     
V23      V      0.264830000000     0.258240000000     0.544180000000     1.39162    
V24      V      0.253830000000     0.255630000000     0.987020000000     1.4161     
V25      V      0.519630000000     0.503550000000     0.218100000000     1.40464    
V26      V      0.517860000000     0.005830000000     0.275990000000     1.39613    
V27      V      0.495710000000     0.751320000000     0.258530000000     1.41111    
V28      V      0.053820000000     0.751650000000     0.261160000000     1.38913    
V29      V      0.269520000000     0.974500000000     0.267220000000     1.41377    
V30      V      0.267530000000     0.531400000000     0.272290000000     1.39271    
V31      V      0.283290000000     0.507140000000     0.021810000000     1.40894    
V32      V      0.225160000000     0.502850000000     0.518380000000     1.40571    
V33      V      0.010820000000     0.733980000000     0.018210000000     1.40388    
V34      V      0.006980000000     0.791120000000     0.513910000000     1.42019    
V35      V      0.264830000000     0.758240000000     0.044180000000     1.39137    
V36      V      0.253830000000     0.755630000000     0.487020000000     1.4159     
V37      V      0.519630000000     0.503550000000     0.718100000000     1.4047     
V38      V      0.517860000000     0.005830000000     0.775990000000     1.39618    
V39      V      0.495710000000     0.751320000000     0.758530000000     1.4111     
V40      V      0.053820000000     0.751650000000     0.761160000000     1.38913    
V41      V      0.269520000000     0.974500000000     0.767220000000     1.41377    
V42      V      0.267530000000     0.531400000000     0.772290000000     1.39271    
V43      V      0.283290000000     0.507140000000     0.521810000000     1.40913    
V44      V      0.225160000000     0.502850000000     0.018380000000     1.40551    
V45      V      0.010820000000     0.733980000000     0.518210000000     1.40407    
V46      V      0.006980000000     0.791120000000     0.013910000000     1.41999    
V47      V      0.264830000000     0.758240000000     0.544180000000     1.39158    
V48      V      0.253830000000     0.755630000000     0.987020000000     1.41604    
V49      V      0.019630000000     0.003550000000     0.218100000000     1.39913    
V50      V      0.017860000000     0.505830000000     0.275990000000     1.41013    
V51      V      0.995710000000     0.251320000000     0.258530000000     1.41138    
V52      V      0.553820000000     0.251650000000     0.261160000000     1.38934    
V53      V      0.769520000000     0.474510000000     0.267220000000     1.4085     
V54      V      0.767530000000     0.031400000000     0.272290000000     1.38487    
V55      V      0.783290000000     0.007140000000     0.021810000000     1.40307    
V56      V      0.725160000000     0.002850000000     0.518380000000     1.39932    
V57      V      0.510820000000     0.233980000000     0.018210000000     1.40398    
V58      V      0.506980000000     0.291120000000     0.513910000000     1.41987    
V59      V      0.764830000000     0.258240000000     0.044180000000     1.3914     
V60      V      0.753830000000     0.255630000000     0.487020000000     1.41595    
V61      V      0.019630000000     0.003550000000     0.718100000000     1.3992     
V62      V      0.017860000000     0.505830000000     0.775990000000     1.41017    
V63      V      0.995710000000     0.251320000000     0.758530000000     1.41138    
V64      V      0.553820000000     0.251650000000     0.761160000000     1.38933    
V65      V      0.769520000000     0.474510000000     0.767220000000     1.40849    
V66      V      0.767530000000     0.031400000000     0.772290000000     1.38487    
V67      V      0.783290000000     0.007140000000     0.521810000000     1.40325    
V68      V      0.725160000000     0.002850000000     0.018380000000     1.39912    
V69      V      0.510820000000     0.233980000000     0.518210000000     1.40416    
V70      V      0.506980000000     0.291120000000     0.013910000000     1.41966    
V71      V      0.764830000000     0.258240000000     0.544180000000     1.39162    
V72      V      0.753830000000     0.255630000000     0.987020000000     1.4161     
V73      V      0.019630000000     0.503550000000     0.218100000000     1.40448    
V74      V      0.017860000000     0.005830000000     0.275990000000     1.39598    
V75      V      0.995710000000     0.751320000000     0.258530000000     1.41132    
V76      V      0.553820000000     0.751650000000     0.261160000000     1.38928    
V77      V      0.769520000000     0.974500000000     0.267220000000     1.41377    
V78      V      0.767530000000     0.531400000000     0.272290000000     1.39271    
V79      V      0.783290000000     0.507140000000     0.021810000000     1.409      
V80      V      0.725160000000     0.502850000000     0.518380000000     1.40566    
V81      V      0.510820000000     0.733980000000     0.018210000000     1.40397    
V82      V      0.506980000000     0.791120000000     0.513910000000     1.42035    
V83      V      0.764830000000     0.758240000000     0.044180000000     1.39137    
V84      V      0.753830000000     0.755630000000     0.487020000000     1.4159     
V85      V      0.019630000000     0.503550000000     0.718100000000     1.40455    
V86      V      0.017860000000     0.005830000000     0.775990000000     1.39602    
V87      V      0.995710000000     0.751320000000     0.758530000000     1.41132    
V88      V      0.553820000000     0.751650000000     0.761160000000     1.38928    
V89      V      0.769520000000     0.974500000000     0.767220000000     1.41377    
V90      V      0.767530000000     0.531400000000     0.772290000000     1.39271    
V91      V      0.783290000000     0.507140000000     0.521810000000     1.40918    
V92      V      0.725160000000     0.502850000000     0.018380000000     1.40546    
V93      V      0.510820000000     0.733980000000     0.518210000000     1.40416    
V94      V      0.506980000000     0.791120000000     0.013910000000     1.42015    
V95      V      0.764830000000     0.758240000000     0.544180000000     1.39158    
V96      V      0.753830000000     0.755630000000     0.987020000000     1.41604    


