data_structure

_audit_creation_method RASPA-1.0
_audit_creation_date 2023-6-5
_audit_author_name 'Poobodin Mano'

_cell_length_a    33.8895
_cell_length_b    33.6341
_cell_length_c    40.2526
_cell_angle_alpha 89.9808
_cell_angle_beta  90.0193
_cell_angle_gamma 119.982
_cell_volume      39741.9

_symmetry_cell_setting          triclinic
_symmetry_space_group_name_Hall 'P 1'
_symmetry_space_group_name_H-M  'P 1'
_symmetry_Int_Tables_number     1

_symmetry_equiv_pos_as_xyz 'x,y,z'

loop_
_atom_site_label
_atom_site_type_symbol
_atom_site_fract_x
_atom_site_fract_y
_atom_site_fract_z
_atom_site_charge
C1       C      0.882060000000     0.692250000000     0.271730000000     0.470858   
C2       C      0.828720000000     0.689710000000     0.389890000000     0.472582   
C3       C      0.775010000000     0.653980000000     0.308590000000     0.474205   
C4       C      0.936540000000     0.727820000000     0.352370000000     0.475248   
C5       C      0.158390000000     0.829320000000     0.495820000000     0.476478   
C6       C      0.188620000000     0.863120000000     0.373160000000     0.476842   
C7       C      0.259790000000     0.891240000000     0.443850000000     0.472831   
C8       C      0.089460000000     0.802070000000     0.423350000000     0.475505   
C9       C      0.551930000000     0.017930000000     0.429960000000     0.475987   
C10      C      0.504650000000     0.016460000000     0.049310000000     0.476407   
C11      C      0.443800000000     0.979360000000     0.473020000000     0.472613   
C12      C      0.609120000000     0.053850000000     0.008420000000     0.475524   
C13      C      0.163770000000     0.340690000000     0.225480000000     0.470905   
C14      C      0.201000000000     0.340650000000     0.103330000000     0.47044    
C15      C      0.266150000000     0.378200000000     0.179920000000     0.474763   
C16      C      0.099430000000     0.304290000000     0.148650000000     0.47546    
C17      C      0.894600000000     0.210920000000     0.991800000000     0.473912   
C18      C      0.852310000000     0.171470000000     0.112800000000     0.473099   
C19      C      0.791180000000     0.145700000000     0.034450000000     0.475921   
C20      C      0.956420000000     0.236370000000     0.069910000000     0.475339   
C21      C      0.557980000000     0.546950000000     0.177340000000     0.471606   
C22      C      0.488990000000     0.485080000000     0.290840000000     0.472001   
C23      C      0.446560000000     0.470200000000     0.206140000000     0.475058   
C24      C      0.599930000000     0.561640000000     0.262550000000     0.474269   
C25      C      0.150580000000     0.341290000000     0.357290000000     0.473397   
C26      C      0.211820000000     0.335420000000     0.471150000000     0.472775   
C27      C      0.225700000000     0.304720000000     0.387080000000     0.474565   
C28      C      0.136700000000     0.371330000000     0.441320000000     0.475354   
C29      C      0.337270000000     0.170240000000     0.372100000000     0.474355   
C30      C      0.344150000000     0.191500000000     0.247200000000     0.473459   
C31      C      0.303310000000     0.230070000000     0.315520000000     0.475702   
C32      C      0.377230000000     0.131790000000     0.305450000000     0.47604    
C33      C      0.024230000000     0.496430000000     0.447850000000     0.480858   
C34      C      0.026980000000     0.499360000000     0.073050000000     0.482192   
C35      C      0.059760000000     0.446870000000     0.509980000000     0.476405   
C36      C      0.990950000000     0.550500000000     0.011190000000     0.472238   
C37      C      0.707290000000     0.896760000000     0.102450000000     0.473018   
C38      C      0.713780000000     0.843870000000     0.219360000000     0.469776   
C39      C      0.749770000000     0.827750000000     0.137390000000     0.470483   
C40      C      0.670650000000     0.909940000000     0.184140000000     0.472226   
C41      C      0.901670000000     0.689040000000     0.140220000000     0.472714   
C42      C      0.853780000000     0.692640000000     0.021280000000     0.469944   
C43      C      0.837220000000     0.733200000000     0.101070000000     0.469995   
C44      C      0.917560000000     0.648560000000     0.061330000000     0.470578   
C45      C      0.541200000000     0.016800000000     0.297290000000     0.474029   
C46      C      0.490240000000     0.019020000000     0.179540000000     0.478036   
C47      C      0.468100000000     0.050060000000     0.258510000000     0.475413   
C48      C      0.566390000000     0.986210000000     0.216700000000     0.473197   
C49      C      0.338480000000     0.142920000000     0.000250000000     0.476051   
C50      C      0.349220000000     0.208530000000     0.115310000000     0.474518   
C51      C      0.378280000000     0.254360000000     0.031230000000     0.475873   
C52      C      0.310250000000     0.096840000000     0.083520000000     0.476879   
C53      C      0.546240000000     0.538240000000     0.044450000000     0.468891   
C54      C      0.504950000000     0.497660000000     0.422940000000     0.469787   
C55      C      0.475790000000     0.435080000000     0.000930000000     0.474923   
C56      C      0.575710000000     0.600850000000     0.466010000000     0.474306   
C57      C      0.223030000000     0.901230000000     0.247130000000     0.478456   
C58      C      0.179190000000     0.851460000000     0.127880000000     0.475044   
C59      C      0.154090000000     0.793720000000     0.207700000000     0.475021   
C60      C      0.246510000000     0.958210000000     0.168090000000     0.477424   
C61      C      0.027940000000     0.535570000000     0.319510000000     0.480778   
C62      C      0.030900000000     0.549280000000     0.194660000000     0.48175    
C63      C      0.992460000000     0.455440000000     0.251200000000     0.472249   
C64      C      0.067050000000     0.628430000000     0.261850000000     0.475986   
C65      C      0.900260000000     0.221520000000     0.359920000000     0.475369   
C66      C      0.841650000000     0.160920000000     0.244480000000     0.47463    
C67      C      0.830630000000     0.109500000000     0.323960000000     0.472304   
C68      C      0.910550000000     0.273400000000     0.281120000000     0.470982   
C69      C      0.712430000000     0.834600000000     0.352350000000     0.472765   
C70      C      0.713740000000     0.889590000000     0.469880000000     0.4708     
C71      C      0.751880000000     0.945480000000     0.389800000000     0.472658   
C72      C      0.675380000000     0.782260000000     0.433280000000     0.474077   
C73      C      0.747050000000     0.014320000000     0.373860000000    -0.00842558 
C74      C      0.822380000000     0.016920000000     0.374090000000    -0.00820986 
C75      C      0.759000000000     0.039320000000     0.340370000000    -0.00866312 
C76      C      0.833290000000     0.039690000000     0.339870000000    -0.00851594 
C77      C      0.906830000000     0.343840000000     0.272620000000    -0.00751588 
C78      C      0.982330000000     0.345200000000     0.268310000000    -0.009694   
C79      C      0.922590000000     0.379640000000     0.245190000000    -0.00800012 
C80      C      0.998420000000     0.384980000000     0.243290000000    -0.00919236 
C81      C      0.079560000000     0.726350000000     0.223540000000    -0.00908841 
C82      C      0.153080000000     0.724190000000     0.228430000000    -0.00770773 
C83      C      0.063880000000     0.700580000000     0.256860000000    -0.00898654 
C84      C      0.138110000000     0.703310000000     0.262870000000    -0.00655532 
C85      C      0.678140000000     0.714970000000     0.456430000000    -0.0087843  
C86      C      0.606620000000     0.719470000000     0.459290000000    -0.00677259 
C87      C      0.649910000000     0.664370000000     0.445530000000    -0.00881492 
C88      C      0.579320000000     0.671460000000     0.445200000000    -0.00741175 
C89      C      0.246250000000     0.027760000000     0.149020000000    -0.00710256 
C90      C      0.317270000000     0.023010000000     0.144120000000    -0.00859917 
C91      C      0.244750000000     0.032500000000     0.111490000000    -0.00754458 
C92      C      0.319010000000     0.032990000000     0.106700000000    -0.00839891 
C93      C      0.444300000000     0.316510000000     0.002280000000    -0.00605774 
C94      C      0.372990000000     0.320530000000     0.008390000000    -0.00854899 
C95      C      0.471940000000     0.363090000000     0.018430000000    -0.00715874 
C96      C      0.401470000000     0.370600000000     0.020630000000    -0.00931897 
C97      C      0.753560000000     0.830140000000     0.302920000000    -0.00808828 
C98      C      0.669060000000     0.789610000000     0.303000000000    -0.0065564  
C99      C      0.755670000000     0.857020000000     0.271690000000    -0.00754229 
C100     C      0.668530000000     0.811250000000     0.269620000000    -0.00934059 
C101     C      0.663770000000     0.894580000000     0.052080000000    -0.0067931  
C102     C      0.747960000000     0.943780000000     0.053350000000    -0.00833854 
C103     C      0.666250000000     0.872610000000     0.019390000000    -0.00930672 
C104     C      0.753130000000     0.919420000000     0.023030000000    -0.00733147 
C105     C      0.767840000000     0.730750000000     0.123410000000    -0.00875519 
C106     C      0.842980000000     0.804410000000     0.123730000000    -0.00870309 
C107     C      0.743990000000     0.757280000000     0.112950000000    -0.00869227 
C108     C      0.818910000000     0.830890000000     0.113850000000    -0.00862834 
C109     C      0.571860000000     0.919810000000     0.196450000000    -0.00791428 
C110     C      0.640600000000     0.999120000000     0.194610000000    -0.00923694 
C111     C      0.601200000000     0.901500000000     0.210630000000    -0.00703611 
C112     C      0.670760000000     0.979330000000     0.206080000000    -0.00893695 
C113     C      0.070230000000     0.551320000000     0.372300000000    -0.00618363 
C114     C      0.984420000000     0.512360000000     0.371990000000    -0.00800918 
C115     C      0.067600000000     0.514330000000     0.395460000000    -0.0061034  
C116     C      0.982170000000     0.474830000000     0.394790000000    -0.00880545 
C117     C      0.985440000000     0.485440000000     0.125730000000    -0.00859253 
C118     C      0.071100000000     0.525560000000     0.125020000000    -0.00518326 
C119     C      0.987980000000     0.527750000000     0.142220000000    -0.0091314  
C120     C      0.073220000000     0.567130000000     0.141870000000    -0.00551682 
C121     C      0.988070000000     0.648030000000     0.044410000000    -0.0117121  
C122     C      0.912540000000     0.574330000000     0.048580000000    -0.00791543 
C123     C      0.999410000000     0.628680000000     0.013400000000    -0.00906145 
C124     C      0.922520000000     0.558680000000     0.015760000000    -0.00781855 
C125     C      0.379560000000     0.183620000000     0.424650000000    -0.00739748 
C126     C      0.293030000000     0.138490000000     0.423780000000    -0.00855744 
C127     C      0.378970000000     0.147740000000     0.448420000000    -0.009054   
C128     C      0.294310000000     0.105480000000     0.449370000000    -0.0055151  
C129     C      0.392750000000     0.246790000000     0.166500000000    -0.00665895 
C130     C      0.308170000000     0.209230000000     0.165800000000    -0.00871779 
C131     C      0.390730000000     0.217290000000     0.196190000000    -0.00877389 
C132     C      0.304330000000     0.176200000000     0.193420000000    -0.00727459 
C133     C      0.447490000000     0.127210000000     0.307400000000    -0.00702088 
C134     C      0.372730000000     0.055560000000     0.300290000000    -0.00802864 
C135     C      0.464900000000     0.118550000000     0.275190000000    -0.00654924 
C136     C      0.392260000000     0.041420000000     0.270850000000    -0.0097954  
C137     C      0.128810000000     0.440670000000     0.505070000000    -0.00660149 
C138     C      0.052990000000     0.370620000000     0.500000000000    -0.00905659 
C139     C      0.139460000000     0.438060000000     0.468720000000    -0.00700278 
C140     C      0.064660000000     0.362700000000     0.464470000000    -0.00883959 
C141     C      0.308190000000     0.305020000000     0.327960000000    -0.00842621 
C142     C      0.233050000000     0.233350000000     0.324710000000    -0.00739305 
C143     C      0.297590000000     0.313370000000     0.363640000000    -0.00919777 
C144     C      0.223740000000     0.237330000000     0.361190000000    -0.00746864 
C145     C      0.473920000000     0.512640000000     0.372240000000    -0.00940081 
C146     C      0.516890000000     0.468440000000     0.369950000000    -0.00785932 
C147     C      0.447260000000     0.486390000000     0.341290000000    -0.00685328 
C148     C      0.486480000000     0.440810000000     0.340780000000    -0.00866345 
C149     C      0.562050000000     0.592400000000     0.127640000000    -0.00850552 
C150     C      0.600780000000     0.546330000000     0.127280000000    -0.00702024 
C151     C      0.533080000000     0.566270000000     0.097500000000    -0.00803025 
C152     C      0.575890000000     0.521890000000     0.095270000000    -0.0095401  
C153     C      0.946970000000     0.226160000000     0.408510000000    -0.00859031 
C154     C      0.901120000000     0.265170000000     0.409740000000    -0.00629253 
C155     C      0.921610000000     0.197000000000     0.438770000000    -0.00715102 
C156     C      0.877000000000     0.239670000000     0.441420000000    -0.00839633 
C157     C      0.866400000000     0.141030000000     0.163930000000    -0.00886144 
C158     C      0.823830000000     0.185880000000     0.164970000000    -0.00736802 
C159     C      0.840680000000     0.116070000000     0.195360000000    -0.0057683  
C160     C      0.796860000000     0.157180000000     0.194960000000    -0.00824602 
C161     C      0.107470000000     0.299670000000     0.307210000000    -0.00873488 
C162     C      0.150440000000     0.384860000000     0.307460000000    -0.00652174 
C163     C      0.135900000000     0.298330000000     0.278130000000    -0.00763774 
C164     C      0.177310000000     0.385830000000     0.276570000000    -0.00924822 
C165     C      0.210790000000     0.293070000000     0.022050000000    -0.00671236 
C166     C      0.255340000000     0.378280000000     0.020820000000    -0.00868733 
C167     C      0.184590000000     0.293980000000     0.052760000000    -0.00905384 
C168     C      0.227690000000     0.381280000000     0.049860000000    -0.00750325 
C169     C      0.031040000000     0.235850000000     0.127200000000    -0.00679328 
C170     C      0.033290000000     0.311350000000     0.129570000000    -0.00795862 
C171     C      0.024440000000     0.234440000000     0.089630000000    -0.00771658 
C172     C      0.022380000000     0.307770000000     0.092240000000    -0.00901705 
C173     C      0.381570000000     0.470520000000     0.178920000000    -0.00634129 
C174     C      0.383100000000     0.397210000000     0.183210000000    -0.00877668 
C175     C      0.335920000000     0.448930000000     0.196390000000    -0.0071854  
C176     C      0.334090000000     0.372950000000     0.197150000000    -0.00933521 
C177     C      0.594570000000     0.062710000000     0.380440000000    -0.00634324 
C178     C      0.557170000000     0.977680000000     0.380170000000    -0.00777804 
C179     C      0.571200000000     0.062390000000     0.347880000000    -0.00886121 
C180     C      0.529410000000     0.974560000000     0.349410000000    -0.00732086 
C181     C      0.445900000000     0.977470000000     0.130000000000    -0.00776986 
C182     C      0.490530000000     0.062570000000     0.129750000000    -0.00577207 
C183     C      0.474170000000     0.974690000000     0.101570000000    -0.00687651 
C184     C      0.517620000000     0.062540000000     0.099480000000    -0.00858615 
C185     C      0.723270000000     0.146920000000     0.013750000000    -0.00704811 
C186     C      0.724390000000     0.072760000000     0.015280000000    -0.0083544  
C187     C      0.676520000000     0.123380000000     0.029760000000    -0.00730658 
C188     C      0.675440000000     0.048190000000     0.028890000000    -0.00875408 
C189     C      0.256590000000     0.892210000000     0.298680000000    -0.00879613 
C190     C      0.213090000000     0.933770000000     0.299380000000    -0.00508768 
C191     C      0.220690000000     0.854050000000     0.320640000000    -0.0071706  
C192     C      0.177610000000     0.897890000000     0.322650000000    -0.00786763 
C193     C      0.148170000000     0.863980000000     0.076520000000    -0.00872434 
C194     C      0.192030000000     0.820620000000     0.076170000000    -0.00737183 
C195     C      0.120960000000     0.835530000000     0.046710000000    -0.00561013 
C196     C      0.161990000000     0.791380000000     0.047430000000    -0.00785152 
C197     C      0.369850000000     0.908300000000     0.467930000000    -0.00747406 
C198     C      0.373890000000     0.985240000000     0.468760000000    -0.00927712 
C199     C      0.332840000000     0.891870000000     0.441660000000    -0.00797994 
C200     C      0.332370000000     0.965970000000     0.445400000000    -0.00879782 
C201     C      0.833380000000     0.733130000000     0.440760000000    -0.00863306 
C202     C      0.790320000000     0.647820000000     0.441530000000    -0.00629525 
C203     C      0.864870000000     0.734300000000     0.468570000000    -0.00781426 
C204     C      0.818240000000     0.647000000000     0.471160000000    -0.00930954 
C205     C      0.869900000000     0.646410000000     0.221490000000    -0.00893287 
C206     C      0.914460000000     0.733940000000     0.219430000000    -0.00778909 
C207     C      0.896980000000     0.645690000000     0.191350000000    -0.00655013 
C208     C      0.942770000000     0.730870000000     0.190910000000    -0.0084532  
C209     C      0.710880000000     0.659710000000     0.283570000000    -0.00912076 
C210     C      0.711760000000     0.585250000000     0.282880000000    -0.00725318 
C211     C      0.659250000000     0.632630000000     0.290480000000    -0.00851532 
C212     C      0.662060000000     0.559640000000     0.292930000000    -0.00711264 
C213     C      0.002280000000     0.721070000000     0.372700000000    -0.00711418 
C214     C      0.004900000000     0.797230000000     0.373270000000    -0.00661418 
C215     C      0.019260000000     0.729120000000     0.408750000000    -0.00752811 
C216     C      0.018790000000     0.803110000000     0.409810000000    -0.00736376 
C217     C      0.882070000000     0.692250000000     0.771730000000     0.470832   
C218     C      0.828720000000     0.689710000000     0.889890000000     0.472921   
C219     C      0.775010000000     0.653980000000     0.808590000000     0.474211   
C220     C      0.936540000000     0.727820000000     0.852370000000     0.474918   
C221     C      0.158390000000     0.829320000000     0.995820000000     0.476423   
C222     C      0.188620000000     0.863120000000     0.873160000000     0.476847   
C223     C      0.259790000000     0.891240000000     0.943860000000     0.472819   
C224     C      0.089460000000     0.802070000000     0.923350000000     0.475503   
C225     C      0.551930000000     0.017930000000     0.929960000000     0.47598    
C226     C      0.504650000000     0.016460000000     0.549310000000     0.476393   
C227     C      0.443800000000     0.979360000000     0.973020000000     0.472646   
C228     C      0.609120000000     0.053850000000     0.508420000000     0.475481   
C229     C      0.163770000000     0.340690000000     0.725480000000     0.470866   
C230     C      0.201000000000     0.340650000000     0.603330000000     0.470479   
C231     C      0.266150000000     0.378190000000     0.679920000000     0.474653   
C232     C      0.099430000000     0.304290000000     0.648650000000     0.475478   
C233     C      0.894600000000     0.210920000000     0.491800000000     0.474194   
C234     C      0.852310000000     0.171470000000     0.612800000000     0.47309    
C235     C      0.791180000000     0.145700000000     0.534450000000     0.475882   
C236     C      0.956420000000     0.236370000000     0.569910000000     0.475461   
C237     C      0.557980000000     0.546950000000     0.677340000000     0.471431   
C238     C      0.488990000000     0.485080000000     0.790840000000     0.472005   
C239     C      0.446560000000     0.470200000000     0.706140000000     0.475249   
C240     C      0.599930000000     0.561640000000     0.762550000000     0.474262   
C241     C      0.150580000000     0.341290000000     0.857290000000     0.473347   
C242     C      0.211820000000     0.335420000000     0.971150000000     0.472682   
C243     C      0.225700000000     0.304720000000     0.887080000000     0.474537   
C244     C      0.136700000000     0.371340000000     0.941320000000     0.475048   
C245     C      0.337270000000     0.170240000000     0.872100000000     0.474353   
C246     C      0.344150000000     0.191500000000     0.747200000000     0.473336   
C247     C      0.303310000000     0.230070000000     0.815520000000     0.475702   
C248     C      0.377230000000     0.131790000000     0.805450000000     0.476041   
C249     C      0.024230000000     0.496430000000     0.947850000000     0.480895   
C250     C      0.026980000000     0.499360000000     0.573050000000     0.482221   
C251     C      0.059760000000     0.446860000000     0.009980000000     0.476259   
C252     C      0.990950000000     0.550500000000     0.511190000000     0.472107   
C253     C      0.707300000000     0.896760000000     0.602450000000     0.47277    
C254     C      0.713780000000     0.843880000000     0.719360000000     0.470056   
C255     C      0.749770000000     0.827750000000     0.637390000000     0.470483   
C256     C      0.670650000000     0.909940000000     0.684140000000     0.472232   
C257     C      0.901670000000     0.689050000000     0.640220000000     0.472727   
C258     C      0.853780000000     0.692640000000     0.521280000000     0.469891   
C259     C      0.837230000000     0.733200000000     0.601070000000     0.470134   
C260     C      0.917560000000     0.648560000000     0.561340000000     0.470609   
C261     C      0.541200000000     0.016800000000     0.797290000000     0.474039   
C262     C      0.490240000000     0.019020000000     0.679540000000     0.477849   
C263     C      0.468100000000     0.050060000000     0.758510000000     0.475426   
C264     C      0.566400000000     0.986210000000     0.716700000000     0.473145   
C265     C      0.338480000000     0.142920000000     0.500250000000     0.475995   
C266     C      0.349220000000     0.208530000000     0.615310000000     0.474483   
C267     C      0.378280000000     0.254370000000     0.531230000000     0.47589    
C268     C      0.310250000000     0.096840000000     0.583520000000     0.476881   
C269     C      0.546240000000     0.538240000000     0.544450000000     0.469002   
C270     C      0.504950000000     0.497660000000     0.922940000000     0.469802   
C271     C      0.475790000000     0.435070000000     0.500920000000     0.474524   
C272     C      0.575710000000     0.600850000000     0.966010000000     0.474286   
C273     C      0.223030000000     0.901230000000     0.747130000000     0.478457   
C274     C      0.179190000000     0.851460000000     0.627880000000     0.47505    
C275     C      0.154090000000     0.793720000000     0.707700000000     0.47498    
C276     C      0.246500000000     0.958210000000     0.668090000000     0.477392   
C277     C      0.027940000000     0.535580000000     0.819510000000     0.480914   
C278     C      0.030900000000     0.549280000000     0.694660000000     0.481741   
C279     C      0.992460000000     0.455440000000     0.751200000000     0.472118   
C280     C      0.067050000000     0.628430000000     0.761850000000     0.476002   
C281     C      0.900260000000     0.221520000000     0.859930000000     0.47541    
C282     C      0.841650000000     0.160920000000     0.744480000000     0.474631   
C283     C      0.830630000000     0.109500000000     0.823960000000     0.472304   
C284     C      0.910550000000     0.273400000000     0.781120000000     0.470986   
C285     C      0.712430000000     0.834600000000     0.852350000000     0.472736   
C286     C      0.713740000000     0.889590000000     0.969880000000     0.470702   
C287     C      0.751880000000     0.945480000000     0.889800000000     0.472621   
C288     C      0.675380000000     0.782260000000     0.933280000000     0.474042   
C289     C      0.747050000000     0.014320000000     0.873860000000    -0.00842725 
C290     C      0.822380000000     0.016920000000     0.874090000000    -0.008211   
C291     C      0.759000000000     0.039320000000     0.840370000000    -0.00866254 
C292     C      0.833290000000     0.039690000000     0.839870000000    -0.00851583 
C293     C      0.906830000000     0.343840000000     0.772620000000    -0.00752442 
C294     C      0.982330000000     0.345200000000     0.768310000000    -0.00967219 
C295     C      0.922590000000     0.379640000000     0.745190000000    -0.00801988 
C296     C      0.998420000000     0.384980000000     0.743290000000    -0.00917423 
C297     C      0.079560000000     0.726350000000     0.723540000000    -0.00908672 
C298     C      0.153080000000     0.724200000000     0.728430000000    -0.00761515 
C299     C      0.063880000000     0.700580000000     0.756860000000    -0.00898915 
C300     C      0.138110000000     0.703310000000     0.762870000000    -0.00657911 
C301     C      0.678140000000     0.714970000000     0.956430000000    -0.00872907 
C302     C      0.606620000000     0.719480000000     0.959290000000    -0.00686245 
C303     C      0.649910000000     0.664370000000     0.945530000000    -0.00883555 
C304     C      0.579320000000     0.671460000000     0.945200000000    -0.00741014 
C305     C      0.246250000000     0.027760000000     0.649020000000    -0.0071175  
C306     C      0.317270000000     0.023010000000     0.644120000000    -0.00862935 
C307     C      0.244750000000     0.032500000000     0.611490000000    -0.00753253 
C308     C      0.319000000000     0.032990000000     0.606700000000    -0.00827314 
C309     C      0.444300000000     0.316510000000     0.502280000000    -0.00608142 
C310     C      0.372990000000     0.320530000000     0.508390000000    -0.008633   
C311     C      0.471940000000     0.363090000000     0.518430000000    -0.00717539 
C312     C      0.401470000000     0.370600000000     0.520640000000    -0.0093435  
C313     C      0.753560000000     0.830140000000     0.802920000000    -0.00811759 
C314     C      0.669060000000     0.789610000000     0.803000000000    -0.00656953 
C315     C      0.755670000000     0.857020000000     0.771690000000    -0.00751869 
C316     C      0.668530000000     0.811240000000     0.769620000000    -0.00931049 
C317     C      0.663770000000     0.894580000000     0.552080000000    -0.00680819 
C318     C      0.747960000000     0.943780000000     0.553350000000    -0.00840152 
C319     C      0.666250000000     0.872610000000     0.519390000000    -0.00929721 
C320     C      0.753120000000     0.919420000000     0.523030000000    -0.00722954 
C321     C      0.767840000000     0.730750000000     0.623410000000    -0.0087257  
C322     C      0.842980000000     0.804410000000     0.623730000000    -0.00874741 
C323     C      0.743990000000     0.757280000000     0.612950000000    -0.00871408 
C324     C      0.818910000000     0.830880000000     0.613850000000    -0.00859639 
C325     C      0.571860000000     0.919810000000     0.696450000000    -0.00791179 
C326     C      0.640600000000     0.999120000000     0.694610000000    -0.00921872 
C327     C      0.601200000000     0.901500000000     0.710630000000    -0.00703618 
C328     C      0.670760000000     0.979330000000     0.706080000000    -0.00898232 
C329     C      0.070230000000     0.551320000000     0.872300000000    -0.00621891 
C330     C      0.984420000000     0.512360000000     0.871990000000    -0.00802086 
C331     C      0.067590000000     0.514330000000     0.895460000000    -0.00599764 
C332     C      0.982170000000     0.474830000000     0.894800000000    -0.00876845 
C333     C      0.985440000000     0.485440000000     0.625730000000    -0.00857689 
C334     C      0.071090000000     0.525560000000     0.625020000000    -0.00506669 
C335     C      0.987980000000     0.527760000000     0.642220000000    -0.00916595 
C336     C      0.073220000000     0.567130000000     0.641870000000    -0.00554184 
C337     C      0.988070000000     0.648040000000     0.544410000000    -0.0116957  
C338     C      0.912540000000     0.574340000000     0.548580000000    -0.00782684 
C339     C      0.999410000000     0.628680000000     0.513400000000    -0.00913982 
C340     C      0.922520000000     0.558680000000     0.515760000000    -0.00793056 
C341     C      0.379560000000     0.183620000000     0.924650000000    -0.00744255 
C342     C      0.293030000000     0.138490000000     0.923780000000    -0.00856153 
C343     C      0.378960000000     0.147740000000     0.948420000000    -0.00893851 
C344     C      0.294310000000     0.105480000000     0.949370000000    -0.00551133 
C345     C      0.392750000000     0.246790000000     0.666500000000    -0.00666615 
C346     C      0.308170000000     0.209230000000     0.665800000000    -0.00872597 
C347     C      0.390730000000     0.217290000000     0.696190000000    -0.00877857 
C348     C      0.304330000000     0.176200000000     0.693420000000    -0.00725967 
C349     C      0.447490000000     0.127210000000     0.807400000000    -0.00699656 
C350     C      0.372730000000     0.055560000000     0.800290000000    -0.0080425  
C351     C      0.464900000000     0.118550000000     0.775190000000    -0.00654659 
C352     C      0.392260000000     0.041420000000     0.770860000000    -0.00975867 
C353     C      0.128810000000     0.440670000000     0.005070000000    -0.00653191 
C354     C      0.052990000000     0.370620000000     0.999990000000    -0.00919807 
C355     C      0.139460000000     0.438060000000     0.968720000000    -0.0070675  
C356     C      0.064660000000     0.362700000000     0.964470000000    -0.00880113 
C357     C      0.308190000000     0.305020000000     0.827960000000    -0.00842579 
C358     C      0.233050000000     0.233350000000     0.824710000000    -0.00739208 
C359     C      0.297590000000     0.313370000000     0.863640000000    -0.00919819 
C360     C      0.223740000000     0.237330000000     0.861190000000    -0.00747108 
C361     C      0.473920000000     0.512640000000     0.872240000000    -0.00945625 
C362     C      0.516900000000     0.468440000000     0.869950000000    -0.00799466 
C363     C      0.447270000000     0.486390000000     0.841290000000    -0.00674151 
C364     C      0.486480000000     0.440820000000     0.840780000000    -0.00852298 
C365     C      0.562050000000     0.592400000000     0.627640000000    -0.0085185  
C366     C      0.600780000000     0.546330000000     0.627280000000    -0.0070244  
C367     C      0.533080000000     0.566270000000     0.597500000000    -0.00801299 
C368     C      0.575890000000     0.521890000000     0.595270000000    -0.00958016 
C369     C      0.946970000000     0.226160000000     0.908510000000    -0.00857235 
C370     C      0.901120000000     0.265170000000     0.909740000000    -0.00627573 
C371     C      0.921610000000     0.197000000000     0.938770000000    -0.00717131 
C372     C      0.877000000000     0.239670000000     0.941420000000    -0.0084241  
C373     C      0.866400000000     0.141030000000     0.663930000000    -0.00886574 
C374     C      0.823840000000     0.185880000000     0.664970000000    -0.0072961  
C375     C      0.840680000000     0.116070000000     0.695360000000    -0.00576629 
C376     C      0.796860000000     0.157180000000     0.694960000000    -0.00827622 
C377     C      0.107470000000     0.299670000000     0.807210000000    -0.00875067 
C378     C      0.150440000000     0.384860000000     0.807460000000    -0.00650702 
C379     C      0.135900000000     0.298330000000     0.778120000000    -0.00761371 
C380     C      0.177310000000     0.385830000000     0.776570000000    -0.00927501 
C381     C      0.210790000000     0.293070000000     0.522050000000    -0.00671512 
C382     C      0.255340000000     0.378280000000     0.520820000000    -0.00870573 
C383     C      0.184590000000     0.293980000000     0.552760000000    -0.00904944 
C384     C      0.227690000000     0.381280000000     0.549860000000    -0.00748108 
C385     C      0.031040000000     0.235850000000     0.627190000000    -0.00675433 
C386     C      0.033290000000     0.311350000000     0.629570000000    -0.00798009 
C387     C      0.024450000000     0.234440000000     0.589630000000    -0.0077956  
C388     C      0.022380000000     0.307770000000     0.592240000000    -0.0090084  
C389     C      0.381570000000     0.470520000000     0.678920000000    -0.00628906 
C390     C      0.383100000000     0.397210000000     0.683210000000    -0.00876518 
C391     C      0.335920000000     0.448930000000     0.696390000000    -0.00721921 
C392     C      0.334090000000     0.372950000000     0.697150000000    -0.00933369 
C393     C      0.594570000000     0.062710000000     0.880440000000    -0.00634166 
C394     C      0.557170000000     0.977680000000     0.880170000000    -0.00780785 
C395     C      0.571200000000     0.062390000000     0.847880000000    -0.00886518 
C396     C      0.529410000000     0.974560000000     0.849410000000    -0.00731115 
C397     C      0.445900000000     0.977470000000     0.630000000000    -0.00777049 
C398     C      0.490530000000     0.062570000000     0.629750000000    -0.00578226 
C399     C      0.474170000000     0.974690000000     0.601570000000    -0.00689848 
C400     C      0.517620000000     0.062540000000     0.599480000000    -0.00858596 
C401     C      0.723280000000     0.146920000000     0.513750000000    -0.00706639 
C402     C      0.724390000000     0.072760000000     0.515280000000    -0.00840946 
C403     C      0.676520000000     0.123380000000     0.529760000000    -0.00731472 
C404     C      0.675440000000     0.048190000000     0.528890000000    -0.00873609 
C405     C      0.256590000000     0.892210000000     0.798680000000    -0.00880452 
C406     C      0.213090000000     0.933770000000     0.799380000000    -0.00508832 
C407     C      0.220690000000     0.854050000000     0.820640000000    -0.00714568 
C408     C      0.177610000000     0.897890000000     0.822650000000    -0.00786634 
C409     C      0.148170000000     0.863980000000     0.576520000000    -0.00869907 
C410     C      0.192030000000     0.820620000000     0.576170000000    -0.00736294 
C411     C      0.120960000000     0.835530000000     0.546710000000    -0.0056173  
C412     C      0.161990000000     0.791380000000     0.547430000000    -0.00787623 
C413     C      0.369850000000     0.908300000000     0.967930000000    -0.00749423 
C414     C      0.373890000000     0.985240000000     0.968760000000    -0.00926616 
C415     C      0.332840000000     0.891870000000     0.941660000000    -0.00797396 
C416     C      0.332370000000     0.965970000000     0.945400000000    -0.00882381 
C417     C      0.833380000000     0.733120000000     0.940760000000    -0.00852699 
C418     C      0.790320000000     0.647820000000     0.941530000000    -0.00631668 
C419     C      0.864880000000     0.734300000000     0.968570000000    -0.0078501  
C420     C      0.818240000000     0.647010000000     0.971160000000    -0.0092217  
C421     C      0.869900000000     0.646410000000     0.721490000000    -0.0089342  
C422     C      0.914460000000     0.733950000000     0.719430000000    -0.00789274 
C423     C      0.896980000000     0.645690000000     0.691350000000    -0.00654248 
C424     C      0.942770000000     0.730870000000     0.690910000000    -0.00839929 
C425     C      0.710880000000     0.659710000000     0.783570000000    -0.00916766 
C426     C      0.711760000000     0.585250000000     0.782880000000    -0.00717955 
C427     C      0.659240000000     0.632630000000     0.790480000000    -0.00851417 
C428     C      0.662050000000     0.559630000000     0.792930000000    -0.00717291 
C429     C      0.002280000000     0.721070000000     0.872700000000    -0.00710148 
C430     C      0.004910000000     0.797230000000     0.873270000000    -0.00666882 
C431     C      0.019260000000     0.729120000000     0.908750000000    -0.00753271 
C432     C      0.018790000000     0.803110000000     0.909810000000    -0.00734851 
H1       H      0.837260000000     0.044300000000     0.393310000000     0.0343367  
H2       H      0.756730000000     0.040450000000     0.393810000000     0.0357427  
H3       H      0.743370000000     0.061500000000     0.339060000000     0.0397841  
H4       H      0.839110000000     0.995810000000     0.376300000000     0.0367599  
H5       H      0.870830000000     0.061950000000     0.337630000000     0.0367913  
H6       H      0.821840000000     0.012400000000     0.320640000000     0.0345213  
H7       H      0.709570000000     0.991110000000     0.375270000000     0.0396794  
H8       H      0.743300000000     0.013070000000     0.320430000000     0.0358708  
H9       H      0.997130000000     0.359930000000     0.292990000000     0.0364065  
H10      H      0.912840000000     0.361440000000     0.297030000000     0.0362938  
H11      H      0.904160000000     0.399080000000     0.247470000000     0.0368227  
H12      H      0.996370000000     0.322930000000     0.260760000000     0.0401235  
H13      H      0.035680000000     0.408380000000     0.246300000000     0.0399094  
H14      H      0.992620000000     0.370240000000     0.217830000000     0.0339068  
H15      H      0.869470000000     0.320690000000     0.269770000000     0.0369821  
H16      H      0.913280000000     0.361560000000     0.220840000000     0.0326753  
H17      H      0.143340000000     0.696040000000     0.210120000000     0.0373978  
H18      H      0.064030000000     0.700700000000     0.203230000000     0.0370335  
H19      H      0.026270000000     0.677820000000     0.256630000000     0.0410057  
H20      H      0.190830000000     0.745840000000     0.228300000000     0.0365645  
H21      H      0.155280000000     0.683580000000     0.269490000000     0.036525   
H22      H      0.149120000000     0.731700000000     0.281190000000     0.0329707  
H23      H      0.066000000000     0.750260000000     0.221340000000     0.0400343  
H24      H      0.072560000000     0.726410000000     0.276910000000     0.0357043  
H25      H      0.605620000000     0.717000000000     0.486870000000     0.0336791  
H26      H      0.682780000000     0.715840000000     0.483820000000     0.0357497  
H27      H      0.664950000000     0.644780000000     0.456840000000     0.039337   
H28      H      0.590100000000     0.739610000000     0.452090000000     0.0366718  
H29      H      0.543650000000     0.656010000000     0.454190000000     0.0372503  
H30      H      0.578690000000     0.673950000000     0.417670000000     0.0351563  
H31      H      0.712380000000     0.730620000000     0.444690000000     0.0395352  
H32      H      0.652800000000     0.662890000000     0.418100000000     0.0363262  
H33      H      0.338250000000     0.056230000000     0.157190000000     0.0363003  
H34      H      0.265810000000     0.062690000000     0.160010000000     0.0341594  
H35      H      0.226600000000     0.051510000000     0.105700000000     0.0367494  
H36      H      0.332720000000     0.001170000000     0.148940000000     0.0402862  
H37      H      0.355080000000     0.053780000000     0.098640000000     0.0396741  
H38      H      0.303910000000     0.999630000000     0.093330000000     0.0358523  
H39      H      0.211090000000     0.011370000000     0.159170000000     0.0373609  
H40      H      0.225050000000     0.997610000000     0.100420000000     0.0351248  
H41      H      0.367810000000     0.321200000000     0.981160000000     0.0361136  
H42      H      0.444330000000     0.321480000000     0.974950000000     0.0336194  
H43      H      0.507560000000     0.379010000000     0.009250000000     0.0375786  
H44      H      0.338990000000     0.304080000000     0.020550000000     0.0392432  
H45      H      0.386510000000     0.390890000000     0.010470000000     0.0396747  
H46      H      0.398690000000     0.370570000000     0.048160000000     0.0358978  
H47      H      0.460840000000     0.295650000000     0.006970000000     0.036008   
H48      H      0.472610000000     0.358210000000     0.045720000000     0.0361549  
H49      H      0.666650000000     0.755980000000     0.297810000000     0.0312258  
H50      H      0.752880000000     0.798010000000     0.295280000000     0.0332023  
H51      H      0.785310000000     0.862430000000     0.256390000000     0.0335525  
H52      H      0.638490000000     0.782610000000     0.317730000000     0.0356249  
H53      H      0.641250000000     0.784460000000     0.253840000000     0.0367413  
H54      H      0.658830000000     0.837840000000     0.274280000000     0.0352576  
H55      H      0.784710000000     0.851000000000     0.318030000000     0.0345633  
H56      H      0.761550000000     0.891400000000     0.279220000000     0.0388208  
H57      H      0.745140000000     0.973670000000     0.044660000000     0.0337867  
H58      H      0.659160000000     0.924240000000     0.045880000000     0.031441   
H59      H      0.638340000000     0.868990000000     0.002860000000     0.0364128  
H60      H      0.778950000000     0.956760000000     0.069070000000     0.0360032  
H61      H      0.782790000000     0.944620000000     0.008090000000     0.0327387  
H62      H      0.760430000000     0.892310000000     0.031620000000     0.0384345  
H63      H      0.633370000000     0.869680000000     0.066480000000     0.0355993  
H64      H      0.659340000000     0.837290000000     0.024890000000     0.0349834  
H65      H      0.846750000000     0.806040000000     0.151220000000     0.0336982  
H66      H      0.765570000000     0.726860000000     0.150900000000     0.0366978  
H67      H      0.708910000000     0.739520000000     0.123340000000     0.0397305  
H68      H      0.877800000000     0.822060000000     0.112890000000     0.0372048  
H69      H      0.837600000000     0.865780000000     0.124940000000     0.0370088  
H70      H      0.821010000000     0.835010000000     0.086380000000     0.0336523  
H71      H      0.749220000000     0.695840000000     0.112300000000     0.0394144  
H72      H      0.741140000000     0.756110000000     0.085400000000     0.0362428  
H73      H      0.642500000000     0.001860000000     0.167060000000     0.0359453  
H74      H      0.570340000000     0.915470000000     0.169010000000     0.035347   
H75      H      0.585810000000     0.864600000000     0.204090000000     0.0368006  
H76      H      0.654920000000     0.034400000000     0.204780000000     0.0395653  
H77      H      0.704690000000     0.998790000000     0.193950000000     0.0390245  
H78      H      0.675800000000     0.984410000000     0.233380000000     0.0361391  
H79      H      0.536660000000     0.898790000000     0.206230000000     0.0370691  
H80      H      0.600740000000     0.903750000000     0.238190000000     0.0336325  
H81      H      0.983440000000     0.539110000000     0.387620000000     0.0345879  
H82      H      0.074430000000     0.580580000000     0.387760000000     0.0344028  
H83      H      0.098100000000     0.528920000000     0.411830000000     0.035335   
H84      H      0.954000000000     0.497090000000     0.355530000000     0.0358499  
H85      H      0.951370000000     0.461540000000     0.410760000000     0.036219   
H86      H      0.979110000000     0.446190000000     0.379120000000     0.0354615  
H87      H      0.100870000000     0.564120000000     0.356220000000     0.0360245  
H88      H      0.068030000000     0.487140000000     0.380010000000     0.0356363  
H89      H      0.072200000000     0.502830000000     0.144630000000     0.0352648  
H90      H      0.982700000000     0.461080000000     0.145500000000     0.0347916  
H91      H      0.957420000000     0.516840000000     0.158090000000     0.0375607  
H92      H      0.101360000000     0.536600000000     0.108780000000     0.0346936  
H93      H      0.104310000000     0.584930000000     0.157560000000     0.0353197  
H94      H      0.075540000000     0.591500000000     0.122250000000     0.0364635  
H95      H      0.954400000000     0.468260000000     0.109950000000     0.0355258  
H96      H      0.987840000000     0.550790000000     0.122430000000     0.0353193  
H97      H      0.923290000000     0.559870000000     0.069230000000     0.0349908  
H98      H      0.004600000000     0.642090000000     0.066220000000     0.0369102  
H99      H      0.036620000000     0.641390000000     0.012780000000     0.0398193  
H100     H      0.875110000000     0.559830000000     0.050550000000     0.0373772  
H101     H      0.903100000000     0.520580000000     0.014600000000     0.036723   
H102     H      0.910260000000     0.571880000000     0.995200000000     0.0331623  
H103     H      0.003360000000     0.685770000000     0.041510000000     0.0416632  
H104     H      0.990890000000     0.642430000000     0.491090000000     0.0344145  
H105     H      0.287370000000     0.164030000000     0.437320000000     0.0370491  
H106     H      0.382870000000     0.213040000000     0.439480000000     0.036795   
H107     H      0.410340000000     0.163870000000     0.463890000000     0.035959   
H108     H      0.263420000000     0.119170000000     0.406970000000     0.0364065  
H109     H      0.263850000000     0.091780000000     0.465740000000     0.0338499  
H110     H      0.292890000000     0.076030000000     0.435730000000     0.0320263  
H111     H      0.409950000000     0.196400000000     0.408280000000     0.0355061  
H112     H      0.378830000000     0.119850000000     0.433480000000     0.034108   
H113     H      0.309780000000     0.240030000000     0.177400000000     0.0340105  
H114     H      0.396390000000     0.279360000000     0.176350000000     0.0325704  
H115     H      0.419800000000     0.238280000000     0.213080000000     0.0365291  
H116     H      0.277180000000     0.192280000000     0.149960000000     0.0360195  
H117     H      0.273770000000     0.167590000000     0.208760000000     0.0342675  
H118     H      0.299480000000     0.144000000000     0.181930000000     0.0361389  
H119     H      0.423400000000     0.255700000000     0.151220000000     0.0356815  
H120     H      0.395420000000     0.188890000000     0.186680000000     0.0354946  
H121     H      0.376780000000     0.039360000000     0.323150000000     0.0343625  
H122     H      0.456240000000     0.110930000000     0.328020000000     0.0336746  
H123     H      0.502620000000     0.135360000000     0.276950000000     0.0369384  
H124     H      0.335650000000     0.041720000000     0.296370000000     0.0407692  
H125     H      0.379720000000     0.003970000000     0.272400000000     0.0413054  
H126     H      0.378410000000     0.047380000000     0.247520000000     0.0372113  
H127     H      0.465060000000     0.164730000000     0.312270000000     0.0370783  
H128     H      0.456500000000     0.134930000000     0.254460000000     0.0366186  
H129     H      0.062840000000     0.351430000000     0.017440000000     0.0361476  
H130     H      0.140590000000     0.420750000000     0.520050000000     0.033074   
H131     H      0.177000000000     0.454000000000     0.466050000000     0.0364698  
H132     H      0.015620000000     0.356440000000     0.002260000000     0.042655   
H133     H      0.050550000000     0.325310000000     0.460470000000     0.0408381  
H134     H      0.047100000000     0.374100000000     0.446780000000     0.0367593  
H135     H      0.147770000000     0.476860000000     0.513770000000     0.0363824  
H136     H      0.128290000000     0.458380000000     0.453640000000     0.037598   
H137     H      0.219500000000     0.251600000000     0.309600000000     0.0336291  
H138     H      0.297060000000     0.323330000000     0.310670000000     0.0353361  
H139     H      0.311540000000     0.350770000000     0.367400000000     0.0397087  
H140     H      0.214640000000     0.196670000000     0.317140000000     0.0369562  
H141     H      0.186270000000     0.220580000000     0.364760000000     0.0368847  
H142     H      0.236420000000     0.218380000000     0.376360000000     0.036617   
H143     H      0.345570000000     0.320040000000     0.324940000000     0.0399769  
H144     H      0.315840000000     0.302380000000     0.381010000000     0.0364091  
H145     H      0.549960000000     0.496010000000     0.360010000000     0.0374151  
H146     H      0.501220000000     0.547230000000     0.364270000000     0.0355836  
H147     H      0.438320000000     0.508450000000     0.326190000000     0.0354933  
H148     H      0.523940000000     0.445320000000     0.385500000000     0.0345229  
H149     H      0.504980000000     0.428170000000     0.325170000000     0.0353063  
H150     H      0.455450000000     0.410540000000     0.350880000000     0.0329806  
H151     H      0.450670000000     0.517890000000     0.388800000000     0.0366218  
H152     H      0.414850000000     0.456220000000     0.349720000000     0.0314717  
H153     H      0.633830000000     0.576690000000     0.120100000000     0.0313425  
H154     H      0.593660000000     0.623010000000     0.118590000000     0.0332448  
H155     H      0.527020000000     0.590250000000     0.082170000000     0.0346525  
H156     H      0.608540000000     0.523250000000     0.142180000000     0.0355231  
H157     H      0.600120000000     0.517710000000     0.079040000000     0.0367249  
H158     H      0.548290000000     0.486810000000     0.101960000000     0.0356706  
H159     H      0.542880000000     0.604470000000     0.143040000000     0.0357932  
H160     H      0.499440000000     0.538440000000     0.106380000000     0.0377924  
H161     H      0.931390000000     0.298270000000     0.417070000000     0.0331732  
H162     H      0.977540000000     0.258020000000     0.417320000000     0.0349767  
H163     H      0.945680000000     0.191160000000     0.453990000000     0.0328267  
H164     H      0.878270000000     0.273270000000     0.394990000000     0.0355153  
H165     H      0.872290000000     0.263620000000     0.457770000000     0.0362042  
H166     H      0.842430000000     0.211500000000     0.434580000000     0.0358267  
H167     H      0.958460000000     0.206760000000     0.392710000000     0.0362322  
H168     H      0.893950000000     0.163010000000     0.430070000000     0.0377432  
H169     H      0.851710000000     0.219580000000     0.173930000000     0.0379083  
H170     H      0.901160000000     0.168360000000     0.171240000000     0.0357392  
H171     H      0.862300000000     0.107070000000     0.210820000000     0.0339637  
H172     H      0.800840000000     0.192490000000     0.149080000000     0.0346414  
H173     H      0.785720000000     0.177340000000     0.210240000000     0.0356463  
H174     H      0.766060000000     0.125800000000     0.185820000000     0.0337203  
H175     H      0.870560000000     0.116410000000     0.147950000000     0.0360898  
H176     H      0.810090000000     0.083420000000     0.187710000000     0.0312557  
H177     H      0.119970000000     0.386370000000     0.299000000000     0.0324738  
H178     H      0.076960000000     0.299720000000     0.297030000000     0.0335694  
H179     H      0.113900000000     0.268060000000     0.262320000000     0.033703   
H180     H      0.171410000000     0.415820000000     0.322900000000     0.0356952  
H181     H      0.181760000000     0.414450000000     0.260230000000     0.0366646  
H182     H      0.211900000000     0.393850000000     0.284650000000     0.035767   
H183     H      0.095740000000     0.268280000000     0.322580000000     0.0356125  
H184     H      0.163930000000     0.293670000000     0.288120000000     0.0370514  
H185     H      0.285690000000     0.377980000000     0.031060000000     0.0338304  
H186     H      0.240870000000     0.290960000000     0.030730000000     0.0319796  
H187     H      0.179040000000     0.265330000000     0.069490000000     0.0363053  
H188     H      0.267380000000     0.409240000000     0.004920000000     0.0360029  
H189     H      0.250250000000     0.411940000000     0.065140000000     0.0343429  
H190     H      0.199800000000     0.386070000000     0.039740000000     0.036499   
H191     H      0.189100000000     0.261740000000     0.007150000000     0.0349742  
H192     H      0.150400000000     0.287110000000     0.044560000000     0.034995   
H193     H      0.000570000000     0.296780000000     0.143410000000     0.0360695  
H194     H      0.996930000000     0.217950000000     0.139240000000     0.033544   
H195     H      0.006450000000     0.198170000000     0.081130000000     0.0375123  
H196     H      0.054270000000     0.348040000000     0.136750000000     0.0397205  
H197     H      0.001430000000     0.324000000000     0.086930000000     0.0414026  
H198     H      0.055120000000     0.327470000000     0.078610000000     0.0364851  
H199     H      0.049110000000     0.216990000000     0.133740000000     0.0367201  
H200     H      0.058580000000     0.252030000000     0.077600000000     0.0341466  
H201     H      0.381060000000     0.391720000000     0.155880000000     0.035751   
H202     H      0.375400000000     0.465650000000     0.151690000000     0.0340553  
H203     H      0.317600000000     0.466940000000     0.188320000000     0.0375913  
H204     H      0.401940000000     0.381090000000     0.194010000000     0.0391417  
H205     H      0.315230000000     0.337430000000     0.187100000000     0.0397886  
H206     H      0.336050000000     0.370430000000     0.224580000000     0.0362811  
H207     H      0.400550000000     0.508060000000     0.183810000000     0.0363728  
H208     H      0.341970000000     0.454530000000     0.223590000000     0.0357446  
H209     H      0.589530000000     0.979780000000     0.372020000000     0.0328238  
H210     H      0.628180000000     0.066270000000     0.374230000000     0.0310219  
H211     H      0.596200000000     0.091040000000     0.332030000000     0.0363066  
H212     H      0.537710000000     0.946020000000     0.395270000000     0.0355373  
H213     H      0.525100000000     0.945290000000     0.333860000000     0.0340714  
H214     H      0.494950000000     0.967100000000     0.357390000000     0.0383171  
H215     H      0.601170000000     0.093170000000     0.395450000000     0.0353752  
H216     H      0.543370000000     0.069720000000     0.353650000000     0.0353384  
H217     H      0.460420000000     0.064390000000     0.120770000000     0.0310002  
H218     H      0.416210000000     0.978650000000     0.119310000000     0.0328466  
H219     H      0.451750000000     0.944650000000     0.085700000000     0.0344075  
H220     H      0.511560000000     0.093610000000     0.145100000000     0.0351072  
H221     H      0.522830000000     0.091080000000     0.082750000000     0.0364404  
H222     H      0.551890000000     0.070090000000     0.108030000000     0.0358326  
H223     H      0.432880000000     0.946140000000     0.145620000000     0.035535   
H224     H      0.501270000000     0.968920000000     0.112070000000     0.0379201  
H225     H      0.722720000000     0.068170000000     0.987860000000     0.0360298  
H226     H      0.718820000000     0.145660000000     0.986310000000     0.0340805  
H227     H      0.658110000000     0.141520000000     0.022230000000     0.0370224  
H228     H      0.742850000000     0.056010000000     0.025690000000     0.0396792  
H229     H      0.656960000000     0.012670000000     0.018820000000     0.0396594  
H230     H      0.677110000000     0.045820000000     0.056360000000     0.036031   
H231     H      0.741610000000     0.183620000000     0.021250000000     0.0368146  
H232     H      0.681010000000     0.126700000000     0.057190000000     0.0342118  
H233     H      0.239790000000     0.961700000000     0.314820000000     0.0325791  
H234     H      0.283200000000     0.918840000000     0.314970000000     0.0339179  
H235     H      0.237790000000     0.840370000000     0.336810000000     0.0348516  
H236     H      0.197150000000     0.949020000000     0.283550000000     0.0332324  
H237     H      0.165100000000     0.914890000000     0.339970000000     0.0361991  
H238     H      0.148070000000     0.873290000000     0.307380000000     0.0368842  
H239     H      0.273020000000     0.877800000000     0.282570000000     0.0360202  
H240     H      0.195960000000     0.825730000000     0.304430000000     0.0361011  
H241     H      0.224830000000     0.848220000000     0.065890000000     0.0375959  
H242     H      0.175390000000     0.897890000000     0.067330000000     0.035974   
H243     H      0.110870000000     0.856070000000     0.030860000000     0.0340888  
H244     H      0.199680000000     0.798630000000     0.092520000000     0.0353097  
H245     H      0.181410000000     0.779570000000     0.032030000000     0.0355588  
H246     H      0.131650000000     0.760740000000     0.057900000000     0.0342084  
H247     H      0.125310000000     0.870470000000     0.092600000000     0.0363046  
H248     H      0.089190000000     0.805510000000     0.056170000000     0.0307257  
H249     H      0.361640000000     0.983680000000     0.494610000000     0.0360363  
H250     H      0.353540000000     0.897240000000     0.492760000000     0.0352832  
H251     H      0.311690000000     0.853910000000     0.443510000000     0.0375311  
H252     H      0.396920000000     0.022060000000     0.462700000000     0.0401522  
H253     H      0.310900000000     0.981110000000     0.452310000000     0.0402657  
H254     H      0.344960000000     0.977470000000     0.419700000000     0.0347035  
H255     H      0.390170000000     0.891170000000     0.963370000000     0.0369839  
H256     H      0.349220000000     0.900270000000     0.416740000000     0.034134   
H257     H      0.759280000000     0.647030000000     0.451410000000     0.0317304  
H258     H      0.804130000000     0.734330000000     0.452220000000     0.0339623  
H259     H      0.874770000000     0.765030000000     0.484350000000     0.0343016  
H260     H      0.778970000000     0.616450000000     0.426200000000     0.0348507  
H261     H      0.795290000000     0.618820000000     0.488190000000     0.0368161  
H262     H      0.843890000000     0.638350000000     0.461770000000     0.0355907  
H263     H      0.852330000000     0.763970000000     0.424780000000     0.0351079  
H264     H      0.896420000000     0.737870000000     0.457220000000     0.0372648  
H265     H      0.887690000000     0.740130000000     0.208810000000     0.0378713  
H266     H      0.835970000000     0.639640000000     0.212710000000     0.0357379  
H267     H      0.875530000000     0.614780000000     0.175980000000     0.0352255  
H268     H      0.936970000000     0.763880000000     0.235340000000     0.0338119  
H269     H      0.955620000000     0.762030000000     0.175100000000     0.035764   
H270     H      0.972510000000     0.729880000000     0.201660000000     0.0337699  
H271     H      0.863820000000     0.617590000000     0.238240000000     0.0355285  
H272     H      0.926410000000     0.642860000000     0.200610000000     0.0321563  
H273     H      0.713760000000     0.584410000000     0.255330000000     0.0346322  
H274     H      0.716010000000     0.666300000000     0.256410000000     0.0365078  
H275     H      0.642810000000     0.649880000000     0.277650000000     0.0387655  
H276     H      0.728560000000     0.566750000000     0.293110000000     0.0371608  
H277     H      0.646260000000     0.523640000000     0.283960000000     0.0366339  
H278     H      0.660150000000     0.558590000000     0.320530000000     0.0341903  
H279     H      0.725860000000     0.693480000000     0.296350000000     0.0396095  
H280     H      0.653940000000     0.633750000000     0.317640000000     0.0356733  
H281     H      0.036310000000     0.814390000000     0.357850000000     0.0347303  
H282     H      0.032360000000     0.733000000000     0.356120000000     0.0363468  
H283     H      0.040290000000     0.712710000000     0.413020000000     0.0395155  
H284     H      0.984990000000     0.814750000000     0.368630000000     0.0361632  
H285     H      0.038670000000     0.840280000000     0.415850000000     0.0371124  
H286     H      0.987340000000     0.787530000000     0.425230000000     0.0330351  
H287     H      0.979840000000     0.683660000000     0.368430000000     0.0393098  
H288     H      0.989030000000     0.712030000000     0.425320000000     0.0349067  
H289     H      0.837260000000     0.044300000000     0.893310000000     0.0343318  
H290     H      0.756730000000     0.040450000000     0.893810000000     0.0357389  
H291     H      0.743370000000     0.061500000000     0.839060000000     0.0397831  
H292     H      0.839110000000     0.995810000000     0.876300000000     0.0367583  
H293     H      0.870830000000     0.061950000000     0.837630000000     0.0367903  
H294     H      0.821840000000     0.012400000000     0.820640000000     0.0345221  
H295     H      0.709570000000     0.991110000000     0.875270000000     0.039683   
H296     H      0.743300000000     0.013070000000     0.820430000000     0.0358719  
H297     H      0.997130000000     0.359930000000     0.792990000000     0.0364044  
H298     H      0.912840000000     0.361430000000     0.797030000000     0.0363024  
H299     H      0.904160000000     0.399080000000     0.747480000000     0.0368269  
H300     H      0.996380000000     0.322930000000     0.760760000000     0.0401109  
H301     H      0.035680000000     0.408370000000     0.746300000000     0.0398991  
H302     H      0.992620000000     0.370240000000     0.717830000000     0.0339049  
H303     H      0.869470000000     0.320690000000     0.769770000000     0.0369837  
H304     H      0.913280000000     0.361560000000     0.720840000000     0.0326822  
H305     H      0.143340000000     0.696030000000     0.710120000000     0.0373662  
H306     H      0.064030000000     0.700700000000     0.703230000000     0.0370353  
H307     H      0.026270000000     0.677820000000     0.756630000000     0.0410054  
H308     H      0.190830000000     0.745840000000     0.728300000000     0.0365313  
H309     H      0.155280000000     0.683580000000     0.769490000000     0.0365313  
H310     H      0.149120000000     0.731710000000     0.781190000000     0.0329689  
H311     H      0.066000000000     0.750260000000     0.721340000000     0.0400349  
H312     H      0.072560000000     0.726410000000     0.776910000000     0.0357025  
H313     H      0.605620000000     0.717000000000     0.986870000000     0.0336886  
H314     H      0.682780000000     0.715840000000     0.983820000000     0.0357247  
H315     H      0.664950000000     0.644780000000     0.956840000000     0.0393301  
H316     H      0.590100000000     0.739610000000     0.952090000000     0.0366941  
H317     H      0.543660000000     0.656010000000     0.954190000000     0.0372553  
H318     H      0.578690000000     0.673950000000     0.917670000000     0.0351574  
H319     H      0.712380000000     0.730620000000     0.944690000000     0.0395203  
H320     H      0.652800000000     0.662890000000     0.918100000000     0.0363294  
H321     H      0.338250000000     0.056230000000     0.657190000000     0.0363019  
H322     H      0.265810000000     0.062690000000     0.660010000000     0.0341582  
H323     H      0.226600000000     0.051510000000     0.605700000000     0.0367433  
H324     H      0.332720000000     0.001170000000     0.648940000000     0.0402916  
H325     H      0.355090000000     0.053780000000     0.598640000000     0.0396231  
H326     H      0.303910000000     0.999630000000     0.593330000000     0.0358138  
H327     H      0.211090000000     0.011370000000     0.659170000000     0.03736    
H328     H      0.225050000000     0.997610000000     0.600420000000     0.0351188  
H329     H      0.367810000000     0.321200000000     0.481160000000     0.0361708  
H330     H      0.444330000000     0.321480000000     0.474950000000     0.0336624  
H331     H      0.507560000000     0.379010000000     0.509250000000     0.0375654  
H332     H      0.338990000000     0.304080000000     0.520550000000     0.0392497  
H333     H      0.386510000000     0.390890000000     0.510470000000     0.0396603  
H334     H      0.398690000000     0.370570000000     0.548160000000     0.0359116  
H335     H      0.460840000000     0.295650000000     0.506970000000     0.0360025  
H336     H      0.472610000000     0.358210000000     0.545720000000     0.0361624  
H337     H      0.666650000000     0.755980000000     0.797810000000     0.0312273  
H338     H      0.752870000000     0.798010000000     0.795280000000     0.0332178  
H339     H      0.785310000000     0.862430000000     0.756390000000     0.033549   
H340     H      0.638490000000     0.782610000000     0.817730000000     0.0356332  
H341     H      0.641250000000     0.784460000000     0.753840000000     0.0367328  
H342     H      0.658830000000     0.837840000000     0.774280000000     0.0352482  
H343     H      0.784710000000     0.851010000000     0.818030000000     0.0345721  
H344     H      0.761550000000     0.891400000000     0.779220000000     0.0388156  
H345     H      0.745140000000     0.973670000000     0.544660000000     0.0337951  
H346     H      0.659160000000     0.924240000000     0.545880000000     0.0314413  
H347     H      0.638340000000     0.868990000000     0.502860000000     0.0363856  
H348     H      0.778950000000     0.956760000000     0.569070000000     0.0360168  
H349     H      0.782790000000     0.944620000000     0.508090000000     0.0326882  
H350     H      0.760430000000     0.892310000000     0.531620000000     0.0383906  
H351     H      0.633370000000     0.869680000000     0.566480000000     0.0356085  
H352     H      0.659340000000     0.837290000000     0.524890000000     0.0349661  
H353     H      0.846750000000     0.806040000000     0.651220000000     0.0337116  
H354     H      0.765570000000     0.726860000000     0.650900000000     0.0366965  
H355     H      0.708910000000     0.739530000000     0.623340000000     0.0397457  
H356     H      0.877800000000     0.822060000000     0.612890000000     0.0372157  
H357     H      0.837590000000     0.865780000000     0.624940000000     0.0370079  
H358     H      0.821010000000     0.835010000000     0.586380000000     0.0336316  
H359     H      0.749220000000     0.695840000000     0.612300000000     0.0394125  
H360     H      0.741140000000     0.756100000000     0.585400000000     0.0362335  
H361     H      0.642500000000     0.001860000000     0.667060000000     0.0359426  
H362     H      0.570340000000     0.915470000000     0.669010000000     0.0353494  
H363     H      0.585810000000     0.864600000000     0.704090000000     0.0368019  
H364     H      0.654920000000     0.034400000000     0.704770000000     0.0395562  
H365     H      0.704680000000     0.998780000000     0.693960000000     0.0390484  
H366     H      0.675800000000     0.984400000000     0.733380000000     0.0361528  
H367     H      0.536660000000     0.898800000000     0.706230000000     0.0370772  
H368     H      0.600740000000     0.903750000000     0.738190000000     0.033632   
H369     H      0.983440000000     0.539110000000     0.887620000000     0.0345822  
H370     H      0.074430000000     0.580580000000     0.887760000000     0.0344018  
H371     H      0.098100000000     0.528920000000     0.911830000000     0.0353035  
H372     H      0.954000000000     0.497090000000     0.855530000000     0.0358534  
H373     H      0.951370000000     0.461540000000     0.910760000000     0.0362023  
H374     H      0.979110000000     0.446190000000     0.879120000000     0.0354524  
H375     H      0.100870000000     0.564120000000     0.856220000000     0.0360216  
H376     H      0.068030000000     0.487140000000     0.880010000000     0.0356094  
H377     H      0.072200000000     0.502820000000     0.644630000000     0.0352272  
H378     H      0.982700000000     0.461080000000     0.645500000000     0.0347885  
H379     H      0.957420000000     0.516840000000     0.658080000000     0.0375673  
H380     H      0.101360000000     0.536600000000     0.608780000000     0.0346583  
H381     H      0.104310000000     0.584930000000     0.657560000000     0.0353265  
H382     H      0.075540000000     0.591510000000     0.622250000000     0.0364612  
H383     H      0.954400000000     0.468250000000     0.609950000000     0.0355246  
H384     H      0.987840000000     0.550790000000     0.622430000000     0.0353301  
H385     H      0.923290000000     0.559870000000     0.569230000000     0.0349635  
H386     H      0.004610000000     0.642090000000     0.566220000000     0.036897   
H387     H      0.036620000000     0.641390000000     0.512780000000     0.039825   
H388     H      0.875110000000     0.559830000000     0.550550000000     0.0373478  
H389     H      0.903100000000     0.520580000000     0.514600000000     0.036733   
H390     H      0.910260000000     0.571880000000     0.495200000000     0.0332303  
H391     H      0.003360000000     0.685770000000     0.541510000000     0.0416567  
H392     H      0.990890000000     0.642430000000     0.991090000000     0.0343552  
H393     H      0.287370000000     0.164030000000     0.937320000000     0.0370392  
H394     H      0.382870000000     0.213040000000     0.939480000000     0.0367903  
H395     H      0.410340000000     0.163870000000     0.963890000000     0.0359045  
H396     H      0.263420000000     0.119170000000     0.906970000000     0.0364049  
H397     H      0.263850000000     0.091780000000     0.965740000000     0.0338325  
H398     H      0.292890000000     0.076030000000     0.935730000000     0.0320226  
H399     H      0.409950000000     0.196400000000     0.908280000000     0.0355121  
H400     H      0.378840000000     0.119850000000     0.933480000000     0.0340619  
H401     H      0.309780000000     0.240030000000     0.677400000000     0.0340152  
H402     H      0.396390000000     0.279360000000     0.676350000000     0.0325745  
H403     H      0.419800000000     0.238280000000     0.713080000000     0.0365261  
H404     H      0.277180000000     0.192280000000     0.649960000000     0.03602    
H405     H      0.273770000000     0.167590000000     0.708760000000     0.0342616  
H406     H      0.299480000000     0.144000000000     0.681920000000     0.0361265  
H407     H      0.423400000000     0.255700000000     0.651220000000     0.0356816  
H408     H      0.395420000000     0.188890000000     0.686680000000     0.0354922  
H409     H      0.376780000000     0.039360000000     0.823150000000     0.0343655  
H410     H      0.456250000000     0.110930000000     0.828020000000     0.0336603  
H411     H      0.502620000000     0.135360000000     0.776950000000     0.0369371  
H412     H      0.335650000000     0.041720000000     0.796370000000     0.0407717  
H413     H      0.379710000000     0.003970000000     0.772410000000     0.0412866  
H414     H      0.378410000000     0.047380000000     0.747520000000     0.0371992  
H415     H      0.465070000000     0.164730000000     0.812270000000     0.0370613  
H416     H      0.456490000000     0.134930000000     0.754460000000     0.0366174  
H417     H      0.062840000000     0.351430000000     0.517440000000     0.0360825  
H418     H      0.140590000000     0.420750000000     0.020050000000     0.0330761  
H419     H      0.177000000000     0.454000000000     0.966050000000     0.0364726  
H420     H      0.015630000000     0.356440000000     0.502260000000     0.0425878  
H421     H      0.050550000000     0.325310000000     0.960470000000     0.0408241  
H422     H      0.047100000000     0.374100000000     0.946780000000     0.0367424  
H423     H      0.147770000000     0.476860000000     0.013770000000     0.0363776  
H424     H      0.128290000000     0.458380000000     0.953640000000     0.0375991  
H425     H      0.219500000000     0.251600000000     0.809600000000     0.0336309  
H426     H      0.297060000000     0.323330000000     0.810670000000     0.0353372  
H427     H      0.311540000000     0.350770000000     0.867400000000     0.0397097  
H428     H      0.214640000000     0.196670000000     0.817140000000     0.0369562  
H429     H      0.186270000000     0.220580000000     0.864760000000     0.0368832  
H430     H      0.236420000000     0.218380000000     0.876360000000     0.0366143  
H431     H      0.345570000000     0.320040000000     0.824940000000     0.0399771  
H432     H      0.315840000000     0.302380000000     0.881010000000     0.0364074  
H433     H      0.549960000000     0.496010000000     0.860010000000     0.0374501  
H434     H      0.501220000000     0.547230000000     0.864280000000     0.0355967  
H435     H      0.438320000000     0.508450000000     0.826190000000     0.0354612  
H436     H      0.523940000000     0.445320000000     0.885500000000     0.0345553  
H437     H      0.504980000000     0.428170000000     0.825170000000     0.0352658  
H438     H      0.455450000000     0.410540000000     0.850880000000     0.0329409  
H439     H      0.450670000000     0.517890000000     0.888800000000     0.0366312  
H440     H      0.414850000000     0.456220000000     0.849720000000     0.0314385  
H441     H      0.633820000000     0.576690000000     0.620100000000     0.0313521  
H442     H      0.593660000000     0.623010000000     0.618590000000     0.0332458  
H443     H      0.527020000000     0.590240000000     0.582170000000     0.0346589  
H444     H      0.608540000000     0.523250000000     0.642190000000     0.0355292  
H445     H      0.600120000000     0.517710000000     0.579040000000     0.0367387  
H446     H      0.548280000000     0.486810000000     0.601960000000     0.0356843  
H447     H      0.542880000000     0.604470000000     0.643040000000     0.0358023  
H448     H      0.499440000000     0.538440000000     0.606380000000     0.0377894  
H449     H      0.931390000000     0.298270000000     0.917070000000     0.0331683  
H450     H      0.977540000000     0.258020000000     0.917320000000     0.0349711  
H451     H      0.945680000000     0.191160000000     0.953990000000     0.0328274  
H452     H      0.878270000000     0.273270000000     0.894990000000     0.0355093  
H453     H      0.872290000000     0.263620000000     0.957760000000     0.0361883  
H454     H      0.842430000000     0.211500000000     0.934580000000     0.0358219  
H455     H      0.958460000000     0.206760000000     0.892710000000     0.0362246  
H456     H      0.893950000000     0.163010000000     0.930070000000     0.0377376  
H457     H      0.851710000000     0.219580000000     0.673930000000     0.0378892  
H458     H      0.901160000000     0.168360000000     0.671230000000     0.0357419  
H459     H      0.862300000000     0.107070000000     0.710820000000     0.0339656  
H460     H      0.800840000000     0.192490000000     0.649080000000     0.0346212  
H461     H      0.785720000000     0.177340000000     0.710240000000     0.0356526  
H462     H      0.766060000000     0.125800000000     0.685820000000     0.0337268  
H463     H      0.870560000000     0.116410000000     0.647950000000     0.0360915  
H464     H      0.810090000000     0.083420000000     0.687710000000     0.0312574  
H465     H      0.119970000000     0.386370000000     0.798990000000     0.0324695  
H466     H      0.076960000000     0.299720000000     0.797030000000     0.0335732  
H467     H      0.113900000000     0.268060000000     0.762320000000     0.0336976  
H468     H      0.171410000000     0.415820000000     0.822900000000     0.0356937  
H469     H      0.181750000000     0.414440000000     0.760230000000     0.0366815  
H470     H      0.211900000000     0.393850000000     0.784650000000     0.0357757  
H471     H      0.095740000000     0.268280000000     0.822580000000     0.0356139  
H472     H      0.163930000000     0.293670000000     0.788120000000     0.0370454  
H473     H      0.285690000000     0.377980000000     0.531050000000     0.0338293  
H474     H      0.240870000000     0.290960000000     0.530730000000     0.0319723  
H475     H      0.179040000000     0.265330000000     0.569490000000     0.0363031  
H476     H      0.267380000000     0.409240000000     0.504920000000     0.0359843  
H477     H      0.250250000000     0.411940000000     0.565140000000     0.0343349  
H478     H      0.199800000000     0.386070000000     0.539730000000     0.0364782  
H479     H      0.189100000000     0.261740000000     0.507150000000     0.0349516  
H480     H      0.150400000000     0.287110000000     0.544560000000     0.0349818  
H481     H      0.000570000000     0.296780000000     0.643400000000     0.0360832  
H482     H      0.996930000000     0.217950000000     0.639240000000     0.033536   
H483     H      0.006450000000     0.198170000000     0.581130000000     0.0375212  
H484     H      0.054270000000     0.348040000000     0.636750000000     0.0397259  
H485     H      0.001430000000     0.324000000000     0.586930000000     0.0414007  
H486     H      0.055120000000     0.327470000000     0.578610000000     0.0364756  
H487     H      0.049110000000     0.216990000000     0.633740000000     0.0367105  
H488     H      0.058580000000     0.252030000000     0.577600000000     0.0341611  
H489     H      0.381060000000     0.391720000000     0.655880000000     0.0357494  
H490     H      0.375400000000     0.465660000000     0.651690000000     0.0340372  
H491     H      0.317600000000     0.466940000000     0.688320000000     0.0375968  
H492     H      0.401940000000     0.381090000000     0.694010000000     0.0391408  
H493     H      0.315230000000     0.337430000000     0.687100000000     0.0397853  
H494     H      0.336050000000     0.370440000000     0.724580000000     0.0362855  
H495     H      0.400550000000     0.508070000000     0.683810000000     0.0363507  
H496     H      0.341970000000     0.454530000000     0.723590000000     0.0357509  
H497     H      0.589520000000     0.979780000000     0.872020000000     0.0328402  
H498     H      0.628180000000     0.066270000000     0.874230000000     0.0310195  
H499     H      0.596200000000     0.091040000000     0.832030000000     0.0363046  
H500     H      0.537710000000     0.946020000000     0.895270000000     0.0355446  
H501     H      0.525100000000     0.945290000000     0.833860000000     0.0340694  
H502     H      0.494950000000     0.967100000000     0.857390000000     0.0383154  
H503     H      0.601170000000     0.093170000000     0.895450000000     0.0353702  
H504     H      0.543370000000     0.069720000000     0.853640000000     0.0353375  
H505     H      0.460420000000     0.064390000000     0.620770000000     0.0310005  
H506     H      0.416210000000     0.978650000000     0.619310000000     0.0328431  
H507     H      0.451750000000     0.944650000000     0.585700000000     0.0344079  
H508     H      0.511560000000     0.093610000000     0.645100000000     0.0351056  
H509     H      0.522830000000     0.091080000000     0.582750000000     0.0364364  
H510     H      0.551890000000     0.070090000000     0.608030000000     0.0358289  
H511     H      0.432880000000     0.946140000000     0.645620000000     0.0355396  
H512     H      0.501270000000     0.968930000000     0.612070000000     0.0379361  
H513     H      0.722720000000     0.068170000000     0.487860000000     0.036081   
H514     H      0.718820000000     0.145660000000     0.486310000000     0.0341203  
H515     H      0.658110000000     0.141520000000     0.522230000000     0.0370113  
H516     H      0.742860000000     0.056010000000     0.525690000000     0.0396811  
H517     H      0.656970000000     0.012670000000     0.518820000000     0.0396361  
H518     H      0.677110000000     0.045820000000     0.556360000000     0.0360294  
H519     H      0.741610000000     0.183620000000     0.521250000000     0.0368052  
H520     H      0.681010000000     0.126700000000     0.557190000000     0.0342138  
H521     H      0.239790000000     0.961700000000     0.814820000000     0.0325799  
H522     H      0.283200000000     0.918840000000     0.814970000000     0.0339221  
H523     H      0.237790000000     0.840360000000     0.836810000000     0.0348402  
H524     H      0.197150000000     0.949020000000     0.783550000000     0.0332325  
H525     H      0.165100000000     0.914890000000     0.839970000000     0.0361984  
H526     H      0.148070000000     0.873290000000     0.807380000000     0.0368827  
H527     H      0.273020000000     0.877800000000     0.782570000000     0.0360203  
H528     H      0.195960000000     0.825730000000     0.804430000000     0.0360902  
H529     H      0.224830000000     0.848220000000     0.565890000000     0.0375866  
H530     H      0.175390000000     0.897900000000     0.567330000000     0.035952   
H531     H      0.110870000000     0.856070000000     0.530860000000     0.034073   
H532     H      0.199680000000     0.798630000000     0.592520000000     0.0353086  
H533     H      0.181410000000     0.779580000000     0.532030000000     0.0355575  
H534     H      0.131650000000     0.760740000000     0.557900000000     0.0342106  
H535     H      0.125310000000     0.870470000000     0.592600000000     0.0362963  
H536     H      0.089190000000     0.805510000000     0.556170000000     0.0307222  
H537     H      0.361640000000     0.983680000000     0.994610000000     0.0360153  
H538     H      0.353540000000     0.897240000000     0.992760000000     0.0352702  
H539     H      0.311690000000     0.853910000000     0.943510000000     0.0375229  
H540     H      0.396920000000     0.022060000000     0.962700000000     0.0401425  
H541     H      0.310910000000     0.981110000000     0.952310000000     0.0402666  
H542     H      0.344960000000     0.977470000000     0.919700000000     0.0347143  
H543     H      0.390180000000     0.891170000000     0.463370000000     0.0369843  
H544     H      0.349220000000     0.900270000000     0.916740000000     0.0341369  
H545     H      0.759280000000     0.647030000000     0.951410000000     0.0317239  
H546     H      0.804130000000     0.734330000000     0.952220000000     0.0339223  
H547     H      0.874770000000     0.765040000000     0.984350000000     0.0342825  
H548     H      0.778970000000     0.616450000000     0.926200000000     0.0348433  
H549     H      0.795290000000     0.618820000000     0.988190000000     0.0367661  
H550     H      0.843890000000     0.638350000000     0.961770000000     0.0355492  
H551     H      0.852330000000     0.763970000000     0.924780000000     0.0350717  
H552     H      0.896420000000     0.737870000000     0.957220000000     0.0372663  
H553     H      0.887690000000     0.740130000000     0.708810000000     0.0378999  
H554     H      0.835970000000     0.639640000000     0.712710000000     0.0357426  
H555     H      0.875530000000     0.614780000000     0.675980000000     0.0352279  
H556     H      0.936960000000     0.763880000000     0.735340000000     0.0338416  
H557     H      0.955620000000     0.762040000000     0.675100000000     0.0357408  
H558     H      0.972510000000     0.729880000000     0.701660000000     0.0337598  
H559     H      0.863820000000     0.617590000000     0.738240000000     0.0355293  
H560     H      0.926410000000     0.642860000000     0.700610000000     0.0321558  
H561     H      0.713760000000     0.584410000000     0.755330000000     0.0346173  
H562     H      0.716010000000     0.666300000000     0.756410000000     0.0365201  
H563     H      0.642810000000     0.649890000000     0.777650000000     0.0387601  
H564     H      0.728560000000     0.566750000000     0.793110000000     0.0371454  
H565     H      0.646260000000     0.523640000000     0.783960000000     0.0366507  
H566     H      0.660150000000     0.558590000000     0.820530000000     0.0342047  
H567     H      0.725860000000     0.693480000000     0.796350000000     0.0396172  
H568     H      0.653940000000     0.633750000000     0.817640000000     0.0356751  
H569     H      0.036310000000     0.814390000000     0.857850000000     0.0347452  
H570     H      0.032360000000     0.733000000000     0.856120000000     0.0363447  
H571     H      0.040290000000     0.712710000000     0.913020000000     0.0395112  
H572     H      0.984990000000     0.814740000000     0.868640000000     0.0361794  
H573     H      0.038670000000     0.840280000000     0.915850000000     0.0371039  
H574     H      0.987340000000     0.787530000000     0.925230000000     0.0330245  
H575     H      0.979840000000     0.683660000000     0.868430000000     0.0393089  
H576     H      0.989030000000     0.712030000000     0.925320000000     0.0349007  
N1       N      0.808750000000     0.065130000000     0.335220000000    -0.179508   
N2       N      0.772650000000     0.989950000000     0.378810000000    -0.179623   
N3       N      0.972240000000     0.408870000000     0.247130000000    -0.179897   
N4       N      0.932170000000     0.318620000000     0.271680000000    -0.178961   
N5       N      0.088190000000     0.675280000000     0.262900000000    -0.180582   
N6       N      0.129780000000     0.749970000000     0.219850000000    -0.180369   
N7       N      0.601290000000     0.644650000000     0.454190000000    -0.180147   
N8       N      0.654170000000     0.740060000000     0.448110000000    -0.180315   
N9       N      0.291830000000     0.055140000000     0.098900000000    -0.181107   
N10      N      0.269940000000     0.002030000000     0.156070000000    -0.180846   
N11      N      0.450130000000     0.390770000000     0.011750000000    -0.18018    
N12      N      0.397350000000     0.295300000000     0.014720000000    -0.180894   
N13      N      0.713020000000     0.833320000000     0.252280000000    -0.178605   
N14      N      0.711670000000     0.818680000000     0.320960000000    -0.179576   
N15      N      0.711200000000     0.897980000000     0.002810000000    -0.179149   
N16      N      0.706180000000     0.911450000000     0.070970000000    -0.179654   
N17      N      0.770530000000     0.805630000000     0.123560000000    -0.178828   
N18      N      0.816250000000     0.755790000000     0.113710000000    -0.17882    
N19      N      0.648430000000     0.929870000000     0.198850000000    -0.179762   
N20      N      0.592450000000     0.968970000000     0.204280000000    -0.179556   
N21      N      0.024580000000     0.494120000000     0.414140000000    -0.181814   
N22      N      0.027550000000     0.533260000000     0.353260000000    -0.181789   
N23      N      0.031020000000     0.551730000000     0.160930000000    -0.181988   
N24      N      0.027740000000     0.500400000000     0.106800000000    -0.182676   
N25      N      0.972000000000     0.578150000000     0.012740000000    -0.180091   
N26      N      0.938460000000     0.624940000000     0.050640000000    -0.178876   
N27      N      0.337090000000     0.128950000000     0.468240000000    -0.181031   
N28      N      0.336610000000     0.163420000000     0.405570000000    -0.180309   
N29      N      0.346350000000     0.196890000000     0.213500000000    -0.179975   
N30      N      0.350360000000     0.223000000000     0.147200000000    -0.180233   
N31      N      0.442590000000     0.068660000000     0.269260000000    -0.180566   
N32      N      0.397840000000     0.105740000000     0.304740000000    -0.180795   
N33      N      0.114290000000     0.389680000000     0.457820000000    -0.18059    
N34      N      0.079230000000     0.419820000000     0.508010000000    -0.180926   
N35      N      0.248240000000     0.286180000000     0.370960000000    -0.180289   
N36      N      0.282610000000     0.255610000000     0.320360000000    -0.180529   
N37      N      0.473320000000     0.470020000000     0.322300000000    -0.179785   
N38      N      0.495560000000     0.489680000000     0.389710000000    -0.178788   
N39      N      0.555080000000     0.545640000000     0.077800000000    -0.178442   
N40      N      0.574060000000     0.562220000000     0.145970000000    -0.179449   
N41      N      0.901340000000     0.219250000000     0.458520000000    -0.180407   
N42      N      0.916460000000     0.238120000000     0.390890000000    -0.180116   
N43      N      0.825800000000     0.144080000000     0.213500000000    -0.180571   
N44      N      0.844000000000     0.162790000000     0.145980000000    -0.179611   
N45      N      0.155860000000     0.341390000000     0.258750000000    -0.179253   
N46      N      0.135250000000     0.342050000000     0.326010000000    -0.179622   
N47      N      0.207570000000     0.338900000000     0.069940000000    -0.179097   
N48      N      0.226790000000     0.335370000000     0.002700000000    -0.179864   
N49      N      0.000120000000     0.259330000000     0.081650000000    -0.180552   
N50      N      0.055470000000     0.284290000000     0.137600000000    -0.181003   
N51      N      0.310760000000     0.399150000000     0.189690000000    -0.180167   
N52      N      0.405840000000     0.446890000000     0.189860000000    -0.180604   
N53      N      0.551160000000     0.017860000000     0.330270000000    -0.179945   
N54      N      0.567340000000     0.019410000000     0.398400000000    -0.180634   
N55      N      0.495700000000     0.017700000000     0.082160000000    -0.180923   
N56      N      0.474740000000     0.019870000000     0.148440000000    -0.181503   
N57      N      0.652410000000     0.074360000000     0.020870000000    -0.180558   
N58      N      0.747500000000     0.122330000000     0.022730000000    -0.180662   
N59      N      0.196210000000     0.872140000000     0.340080000000    -0.181256   
N60      N      0.233940000000     0.912410000000     0.279680000000    -0.181832   
N61      N      0.147250000000     0.818800000000     0.028430000000    -0.181012   
N62      N      0.169900000000     0.841940000000     0.094910000000    -0.180105   
N63      N      0.306390000000     0.915390000000     0.445810000000    -0.179544   
N64      N      0.397860000000     0.958710000000     0.467330000000    -0.17951    
N65      N      0.842690000000     0.691740000000     0.488490000000    -0.17877    
N66      N      0.816560000000     0.690100000000     0.422210000000    -0.179841   
N67      N      0.914310000000     0.688430000000     0.172360000000    -0.179618   
N68      N      0.892320000000     0.691070000000     0.239010000000    -0.179256   
N69      N      0.639560000000     0.584290000000     0.280240000000    -0.180324   
N70      N      0.733040000000     0.633440000000     0.293840000000    -0.180061   
N71      N      0.044020000000     0.778710000000     0.415910000000    -0.180729   
N72      N      0.979630000000     0.747850000000     0.365180000000    -0.181521   
N73      N      0.808750000000     0.065130000000     0.835220000000    -0.179509   
N74      N      0.772650000000     0.989950000000     0.878810000000    -0.179616   
N75      N      0.972240000000     0.408860000000     0.747130000000    -0.179825   
N76      N      0.932170000000     0.318620000000     0.771680000000    -0.178962   
N77      N      0.088190000000     0.675280000000     0.762900000000    -0.180583   
N78      N      0.129780000000     0.749970000000     0.719850000000    -0.180378   
N79      N      0.601290000000     0.644650000000     0.954190000000    -0.180147   
N80      N      0.654180000000     0.740060000000     0.948110000000    -0.180304   
N81      N      0.291830000000     0.055140000000     0.598900000000    -0.181128   
N82      N      0.269940000000     0.002030000000     0.656060000000    -0.18081    
N83      N      0.450130000000     0.390770000000     0.511750000000    -0.180148   
N84      N      0.397350000000     0.295290000000     0.514720000000    -0.180989   
N85      N      0.713020000000     0.833330000000     0.752280000000    -0.17866    
N86      N      0.711670000000     0.818680000000     0.820960000000    -0.179566   
N87      N      0.711200000000     0.897980000000     0.502810000000    -0.17921    
N88      N      0.706180000000     0.911450000000     0.570970000000    -0.179584   
N89      N      0.770530000000     0.805630000000     0.623570000000    -0.178857   
N90      N      0.816250000000     0.755780000000     0.613710000000    -0.17883    
N91      N      0.648430000000     0.929870000000     0.698850000000    -0.179756   
N92      N      0.592450000000     0.968970000000     0.704280000000    -0.179609   
N93      N      0.024580000000     0.494120000000     0.914140000000    -0.181839   
N94      N      0.027550000000     0.533260000000     0.853260000000    -0.181806   
N95      N      0.031020000000     0.551730000000     0.660930000000    -0.181977   
N96      N      0.027740000000     0.500400000000     0.606800000000    -0.182701   
N97      N      0.972000000000     0.578150000000     0.512740000000    -0.180059   
N98      N      0.938460000000     0.624940000000     0.550640000000    -0.178872   
N99      N      0.337090000000     0.128950000000     0.968240000000    -0.181083   
N100     N      0.336610000000     0.163420000000     0.905570000000    -0.180304   
N101     N      0.346350000000     0.196890000000     0.713490000000    -0.179892   
N102     N      0.350360000000     0.223010000000     0.647200000000    -0.180208   
N103     N      0.442590000000     0.068660000000     0.769260000000    -0.180574   
N104     N      0.397840000000     0.105740000000     0.804740000000    -0.180796   
N105     N      0.114290000000     0.389680000000     0.957820000000    -0.180586   
N106     N      0.079230000000     0.419820000000     0.008010000000    -0.18093    
N107     N      0.248240000000     0.286180000000     0.870960000000    -0.180285   
N108     N      0.282610000000     0.255610000000     0.820360000000    -0.180529   
N109     N      0.473320000000     0.470020000000     0.822300000000    -0.179824   
N110     N      0.495560000000     0.489680000000     0.889710000000    -0.178766   
N111     N      0.555080000000     0.545650000000     0.577790000000    -0.178516   
N112     N      0.574060000000     0.562220000000     0.645970000000    -0.179419   
N113     N      0.901340000000     0.219250000000     0.958520000000    -0.180362   
N114     N      0.916460000000     0.238120000000     0.890880000000    -0.180265   
N115     N      0.825800000000     0.144080000000     0.713500000000    -0.180568   
N116     N      0.844000000000     0.162790000000     0.645980000000    -0.17962    
N117     N      0.155860000000     0.341390000000     0.758750000000    -0.179247   
N118     N      0.135250000000     0.342050000000     0.826010000000    -0.179615   
N119     N      0.207570000000     0.338900000000     0.569940000000    -0.179106   
N120     N      0.226790000000     0.335370000000     0.502700000000    -0.17991    
N121     N      0.000120000000     0.259330000000     0.581650000000    -0.180569   
N122     N      0.055470000000     0.284290000000     0.637600000000    -0.181009   
N123     N      0.310770000000     0.399150000000     0.689690000000    -0.180102   
N124     N      0.405840000000     0.446890000000     0.689860000000    -0.18064    
N125     N      0.551160000000     0.017860000000     0.830270000000    -0.179948   
N126     N      0.567340000000     0.019410000000     0.898400000000    -0.180631   
N127     N      0.495700000000     0.017700000000     0.582160000000    -0.180921   
N128     N      0.474740000000     0.019870000000     0.648440000000    -0.181475   
N129     N      0.652410000000     0.074360000000     0.520870000000    -0.180559   
N130     N      0.747500000000     0.122330000000     0.522730000000    -0.180657   
N131     N      0.196210000000     0.872140000000     0.840080000000    -0.181259   
N132     N      0.233940000000     0.912410000000     0.779680000000    -0.181832   
N133     N      0.147250000000     0.818800000000     0.528430000000    -0.18104    
N134     N      0.169900000000     0.841940000000     0.594910000000    -0.180109   
N135     N      0.306390000000     0.915390000000     0.945810000000    -0.179546   
N136     N      0.397860000000     0.958710000000     0.967330000000    -0.179516   
N137     N      0.842690000000     0.691740000000     0.988490000000    -0.178813   
N138     N      0.816560000000     0.690100000000     0.922210000000    -0.179922   
N139     N      0.914310000000     0.688430000000     0.672360000000    -0.179615   
N140     N      0.892320000000     0.691070000000     0.739010000000    -0.179255   
N141     N      0.639560000000     0.584290000000     0.780240000000    -0.180312   
N142     N      0.733040000000     0.633430000000     0.793840000000    -0.180065   
N143     N      0.044020000000     0.778710000000     0.915910000000    -0.180733   
N144     N      0.979640000000     0.747850000000     0.865180000000    -0.181413   
O1       O      0.871410000000     0.657270000000     0.290330000000    -0.558792   
O2       O      0.830330000000     0.654810000000     0.378580000000    -0.555874   
O3       O      0.791330000000     0.628890000000     0.318510000000    -0.565916   
O4       O      0.912460000000     0.683910000000     0.350270000000    -0.559685   
O5       O      0.920170000000     0.753210000000     0.343140000000    -0.560637   
O6       O      0.798590000000     0.697960000000     0.311100000000    -0.552527   
O7       O      0.839670000000     0.724830000000     0.371380000000    -0.555785   
O8       O      0.880790000000     0.727300000000     0.283120000000    -0.554145   
O9       O      0.165580000000     0.802290000000     0.477560000000    -0.559877   
O10      O      0.187620000000     0.827330000000     0.385370000000    -0.55954    
O11      O      0.239550000000     0.847720000000     0.439190000000    -0.563779   
O12      O      0.112380000000     0.781060000000     0.423300000000    -0.558637   
O13      O      0.109090000000     0.845250000000     0.429480000000    -0.561975   
O14      O      0.236730000000     0.912150000000     0.445270000000    -0.553184   
O15      O      0.182560000000     0.890600000000     0.391700000000    -0.563187   
O16      O      0.160640000000     0.865660000000     0.483620000000    -0.560759   
O17      O      0.540860000000     0.982480000000     0.448090000000    -0.561033   
O18      O      0.505210000000     0.981260000000     0.037510000000    -0.5605     
O19      O      0.461560000000     0.954310000000     0.479610000000    -0.561938   
O20      O      0.585200000000     0.009870000000     0.006550000000    -0.556756   
O21      O      0.592260000000     0.078950000000     0.999660000000    -0.564269   
O22      O      0.468440000000     0.023380000000     0.473310000000    -0.555657   
O23      O      0.514270000000     0.051270000000     0.030890000000    -0.563053   
O24      O      0.549280000000     0.052190000000     0.441360000000    -0.559195   
O25      O      0.163760000000     0.305610000000     0.212840000000    -0.556312   
O26      O      0.192830000000     0.306130000000     0.121690000000    -0.556907   
O27      O      0.241930000000     0.334150000000     0.178710000000    -0.552996   
O28      O      0.116660000000     0.278920000000     0.155770000000    -0.561226   
O29      O      0.123730000000     0.348200000000     0.150410000000    -0.559347   
O30      O      0.248550000000     0.403140000000     0.172730000000    -0.5663     
O31      O      0.201210000000     0.375950000000     0.115840000000    -0.554079   
O32      O      0.172600000000     0.375650000000     0.207350000000    -0.556065   
O33      O      0.893840000000     0.175330000000     0.004220000000    -0.557082   
O34      O      0.861210000000     0.145300000000     0.094870000000    -0.557907   
O35      O      0.814710000000     0.125470000000     0.036800000000    -0.558218   
O36      O      0.938770000000     0.193910000000     0.062070000000    -0.56569    
O37      O      0.932820000000     0.256620000000     0.068060000000    -0.557173   
O38      O      0.808760000000     0.188280000000     0.042060000000    -0.564036   
O39      O      0.853150000000     0.206950000000     0.100170000000    -0.559822   
O40      O      0.886450000000     0.237330000000     0.009980000000    -0.563091   
O41      O      0.556510000000     0.510420000000     0.188520000000    -0.553726   
O42      O      0.503840000000     0.463540000000     0.273170000000    -0.55714    
O43      O      0.471500000000     0.451760000000     0.210330000000    -0.554907   
O44      O      0.587080000000     0.521150000000     0.251540000000    -0.561711   
O45      O      0.575060000000     0.580110000000     0.258120000000    -0.556206   
O46      O      0.459830000000     0.510990000000     0.216640000000    -0.563383   
O47      O      0.490190000000     0.521470000000     0.279610000000    -0.554005   
O48      O      0.543210000000     0.568570000000     0.195030000000    -0.556392   
O49      O      0.187070000000     0.376300000000     0.368150000000    -0.55607    
O50      O      0.233610000000     0.371320000000     0.452960000000    -0.558762   
O51      O      0.244430000000     0.348440000000     0.390570000000    -0.555952   
O52      O      0.177210000000     0.398130000000     0.430580000000    -0.563351   
O53      O      0.117860000000     0.327680000000     0.437530000000    -0.556348   
O54      O      0.185270000000     0.277990000000     0.397970000000    -0.56308    
O55      O      0.175310000000     0.300300000000     0.460360000000    -0.554071   
O56      O      0.129050000000     0.305030000000     0.375210000000    -0.556634   
O57      O      0.372360000000     0.204180000000     0.358760000000    -0.560555   
O58      O      0.377860000000     0.219680000000     0.265230000000    -0.559677   
O59      O      0.346980000000     0.249290000000     0.316060000000    -0.557228   
O60      O      0.402000000000     0.175490000000     0.308460000000    -0.566046   
O61      O      0.333650000000     0.112710000000     0.303570000000    -0.555265   
O62      O      0.278550000000     0.186530000000     0.311540000000    -0.563187   
O63      O      0.308490000000     0.158130000000     0.260530000000    -0.556198   
O64      O      0.303250000000     0.142210000000     0.354210000000    -0.557515   
O65      O      0.059510000000     0.527450000000     0.463070000000    -0.567273   
O66      O      0.061480000000     0.529820000000     0.056870000000    -0.568348   
O67      O      0.085670000000     0.490610000000     0.510220000000    -0.567752   
O68      O      0.034460000000     0.568280000000     0.009990000000    -0.557603   
O69      O      0.964870000000     0.506700000000     0.011500000000    -0.560136   
O70      O      0.016170000000     0.428760000000     0.510360000000    -0.554424   
O71      O      0.991450000000     0.468610000000     0.057930000000    -0.565196   
O72      O      0.988880000000     0.467220000000     0.463960000000    -0.563578   
O73      O      0.742160000000     0.920950000000     0.120830000000    -0.557927   
O74      O      0.747590000000     0.880910000000     0.207920000000    -0.555181   
O75      O      0.773870000000     0.869630000000     0.147100000000    -0.552321   
O76      O      0.714410000000     0.931960000000     0.181450000000    -0.547414   
O77      O      0.647260000000     0.868390000000     0.174020000000    -0.564937   
O78      O      0.706150000000     0.806760000000     0.139880000000    -0.557911   
O79      O      0.679290000000     0.818590000000     0.200800000000    -0.554816   
O80      O      0.673910000000     0.858800000000     0.113270000000    -0.553344   
O81      O      0.927130000000     0.723410000000     0.121540000000    -0.55418    
O82      O      0.890870000000     0.726510000000     0.032580000000    -0.552094   
O83      O      0.879090000000     0.756170000000     0.091920000000    -0.553998   
O84      O      0.939590000000     0.692750000000     0.062430000000    -0.548113   
O85      O      0.875670000000     0.626020000000     0.070300000000    -0.56198    
O86      O      0.815350000000     0.689110000000     0.099330000000    -0.555246   
O87      O      0.828030000000     0.658620000000     0.040170000000    -0.556405   
O88      O      0.864170000000     0.655590000000     0.129130000000    -0.555681   
O89      O      0.564590000000     0.052540000000     0.279190000000    -0.559484   
O90      O      0.526010000000     0.054450000000     0.190860000000    -0.558786   
O91      O      0.509760000000     0.077100000000     0.250470000000    -0.568697   
O92      O      0.583180000000     0.029790000000     0.219030000000    -0.559567   
O93      O      0.524960000000     0.958580000000     0.225430000000    -0.558464   
O94      O      0.450650000000     0.006260000000     0.256350000000    -0.552646   
O95      O      0.468680000000     0.982630000000     0.197150000000    -0.565047   
O96      O      0.506690000000     0.980960000000     0.285220000000    -0.560962   
O97      O      0.304530000000     0.145270000000     0.012080000000    -0.559238   
O98      O      0.313270000000     0.195830000000     0.097740000000    -0.560632   
O99      O      0.334920000000     0.230750000000     0.035530000000    -0.55419    
O100     O      0.284050000000     0.112090000000     0.074130000000    -0.56228    
O101     O      0.353530000000     0.120980000000     0.079450000000    -0.561096   
O102     O      0.404200000000     0.239240000000     0.041390000000    -0.567426   
O103     O      0.383220000000     0.206000000000     0.103630000000    -0.556881   
O104     O      0.374750000000     0.155960000000     0.017560000000    -0.560728   
O105     O      0.512430000000     0.540320000000     0.031870000000    -0.553722   
O106     O      0.480730000000     0.508590000000     0.441190000000    -0.555507   
O107     O      0.458480000000     0.461410000000     0.999270000000    -0.554598   
O108     O      0.533860000000     0.585830000000     0.473760000000    -0.561898   
O109     O      0.593020000000     0.574580000000     0.468150000000    -0.556769   
O110     O      0.517660000000     0.450290000000     0.993240000000    -0.564702   
O111     O      0.539020000000     0.495930000000     0.435390000000    -0.553792   
O112     O      0.570490000000     0.527250000000     0.026250000000    -0.554327   
O113     O      0.187110000000     0.899500000000     0.235030000000    -0.560893   
O114     O      0.154300000000     0.862230000000     0.145500000000    -0.560377   
O115     O      0.134970000000     0.818220000000     0.204570000000    -0.56029    
O116     O      0.204670000000     0.941600000000     0.176340000000    -0.568568   
O117     O      0.265720000000     0.933590000000     0.170090000000    -0.555509   
O118     O      0.196250000000     0.810250000000     0.200050000000    -0.56134    
O119     O      0.214070000000     0.851710000000     0.140550000000    -0.561284   
O120     O      0.247830000000     0.890660000000     0.229380000000    -0.564368   
O121     O      0.993740000000     0.533570000000     0.304300000000    -0.565609   
O122     O      0.995810000000     0.543470000000     0.210780000000    -0.566177   
O123     O      0.967520000000     0.474170000000     0.253690000000    -0.558543   
O124     O      0.023300000000     0.604060000000     0.260990000000    -0.553012   
O125     O      0.091560000000     0.609270000000     0.260730000000    -0.567008   
O126     O      0.036080000000     0.480190000000     0.252170000000    -0.558558   
O127     O      0.065230000000     0.551300000000     0.209770000000    -0.565766   
O128     O      0.062620000000     0.540090000000     0.303390000000    -0.564922   
O129     O      0.861870000000     0.216680000000     0.350400000000    -0.556636   
O130     O      0.818240000000     0.171940000000     0.263530000000    -0.558314   
O131     O      0.809500000000     0.132310000000     0.323200000000    -0.557887   
O132     O      0.869080000000     0.254430000000     0.290990000000    -0.563854   
O133     O      0.931920000000     0.250690000000     0.281200000000    -0.549228   
O134     O      0.872100000000     0.127920000000     0.313960000000    -0.556418   
O135     O      0.879860000000     0.165660000000     0.254210000000    -0.557406   
O136     O      0.923610000000     0.210770000000     0.340690000000    -0.559252   
O137     O      0.678360000000     0.837810000000     0.362930000000    -0.555914   
O138     O      0.679770000000     0.879910000000     0.450760000000    -0.558377   
O139     O      0.708170000000     0.921450000000     0.391010000000    -0.557386   
O140     O      0.651150000000     0.799240000000     0.422910000000    -0.565344   
O141     O      0.719090000000     0.805330000000     0.431040000000    -0.551682   
O142     O      0.776350000000     0.928150000000     0.399060000000    -0.557536   
O143     O      0.748670000000     0.888210000000     0.458910000000    -0.553724   
O144     O      0.747300000000     0.846220000000     0.370980000000    -0.555498   
O145     O      0.871410000000     0.657270000000     0.790330000000    -0.558797   
O146     O      0.830330000000     0.654820000000     0.878580000000    -0.556028   
O147     O      0.791330000000     0.628890000000     0.818510000000    -0.565902   
O148     O      0.912460000000     0.683900000000     0.850270000000    -0.559502   
O149     O      0.920170000000     0.753210000000     0.843140000000    -0.560564   
O150     O      0.798590000000     0.697960000000     0.811100000000    -0.552546   
O151     O      0.839680000000     0.724830000000     0.871380000000    -0.55595    
O152     O      0.880790000000     0.727300000000     0.783120000000    -0.554107   
O153     O      0.165580000000     0.802290000000     0.977560000000    -0.559885   
O154     O      0.187620000000     0.827330000000     0.885370000000    -0.559534   
O155     O      0.239550000000     0.847720000000     0.939190000000    -0.563761   
O156     O      0.112380000000     0.781060000000     0.923300000000    -0.558639   
O157     O      0.109090000000     0.845250000000     0.929480000000    -0.561979   
O158     O      0.236730000000     0.912150000000     0.945270000000    -0.55319    
O159     O      0.182560000000     0.890600000000     0.891700000000    -0.563182   
O160     O      0.160640000000     0.865660000000     0.983620000000    -0.56077    
O161     O      0.540860000000     0.982480000000     0.948090000000    -0.561025   
O162     O      0.505210000000     0.981260000000     0.537510000000    -0.560532   
O163     O      0.461560000000     0.954310000000     0.979610000000    -0.561955   
O164     O      0.585200000000     0.009870000000     0.506550000000    -0.556794   
O165     O      0.592260000000     0.078950000000     0.499660000000    -0.564317   
O166     O      0.468440000000     0.023380000000     0.973310000000    -0.555787   
O167     O      0.514270000000     0.051270000000     0.530890000000    -0.563043   
O168     O      0.549280000000     0.052190000000     0.941360000000    -0.559158   
O169     O      0.163760000000     0.305610000000     0.712840000000    -0.556153   
O170     O      0.192830000000     0.306130000000     0.621690000000    -0.557066   
O171     O      0.241930000000     0.334150000000     0.678710000000    -0.553017   
O172     O      0.116660000000     0.278920000000     0.655770000000    -0.561263   
O173     O      0.123730000000     0.348200000000     0.650420000000    -0.559383   
O174     O      0.248550000000     0.403140000000     0.672730000000    -0.566185   
O175     O      0.201210000000     0.375950000000     0.615840000000    -0.554115   
O176     O      0.172600000000     0.375650000000     0.707350000000    -0.556029   
O177     O      0.893830000000     0.175330000000     0.504220000000    -0.557293   
O178     O      0.861210000000     0.145300000000     0.594870000000    -0.55793    
O179     O      0.814710000000     0.125470000000     0.536800000000    -0.558237   
O180     O      0.938760000000     0.193910000000     0.562070000000    -0.56589    
O181     O      0.932820000000     0.256620000000     0.568060000000    -0.557279   
O182     O      0.808760000000     0.188280000000     0.542060000000    -0.563909   
O183     O      0.853150000000     0.206950000000     0.600170000000    -0.559779   
O184     O      0.886450000000     0.237330000000     0.509980000000    -0.563202   
O185     O      0.556510000000     0.510420000000     0.688520000000    -0.553666   
O186     O      0.503840000000     0.463540000000     0.773170000000    -0.557117   
O187     O      0.471490000000     0.451760000000     0.710330000000    -0.554929   
O188     O      0.587080000000     0.521150000000     0.751540000000    -0.561683   
O189     O      0.575060000000     0.580110000000     0.758120000000    -0.556222   
O190     O      0.459830000000     0.510990000000     0.716640000000    -0.563439   
O191     O      0.490190000000     0.521470000000     0.779610000000    -0.554018   
O192     O      0.543200000000     0.568570000000     0.695030000000    -0.556324   
O193     O      0.187070000000     0.376300000000     0.868150000000    -0.556038   
O194     O      0.233620000000     0.371320000000     0.952960000000    -0.558677   
O195     O      0.244430000000     0.348440000000     0.890570000000    -0.55592    
O196     O      0.177220000000     0.398140000000     0.930580000000    -0.563225   
O197     O      0.117860000000     0.327680000000     0.937540000000    -0.556181   
O198     O      0.185270000000     0.277990000000     0.897970000000    -0.562981   
O199     O      0.175310000000     0.300300000000     0.960360000000    -0.554172   
O200     O      0.129050000000     0.305030000000     0.875210000000    -0.556482   
O201     O      0.372360000000     0.204180000000     0.858760000000    -0.560554   
O202     O      0.377860000000     0.219680000000     0.765230000000    -0.559646   
O203     O      0.346980000000     0.249290000000     0.816060000000    -0.557226   
O204     O      0.402000000000     0.175490000000     0.808460000000    -0.566043   
O205     O      0.333650000000     0.112710000000     0.803570000000    -0.555264   
O206     O      0.278550000000     0.186530000000     0.811540000000    -0.563186   
O207     O      0.308490000000     0.158130000000     0.760530000000    -0.556167   
O208     O      0.303250000000     0.142210000000     0.854210000000    -0.557513   
O209     O      0.059510000000     0.527450000000     0.963060000000    -0.567198   
O210     O      0.061480000000     0.529820000000     0.556870000000    -0.568386   
O211     O      0.085670000000     0.490610000000     0.010220000000    -0.567611   
O212     O      0.034460000000     0.568280000000     0.509990000000    -0.557594   
O213     O      0.964870000000     0.506690000000     0.511500000000    -0.560202   
O214     O      0.016170000000     0.428750000000     0.010360000000    -0.554206   
O215     O      0.991450000000     0.468610000000     0.557930000000    -0.565239   
O216     O      0.988880000000     0.467220000000     0.963960000000    -0.563604   
O217     O      0.742160000000     0.920950000000     0.620830000000    -0.557944   
O218     O      0.747580000000     0.880900000000     0.707920000000    -0.555335   
O219     O      0.773870000000     0.869630000000     0.647100000000    -0.55221    
O220     O      0.714410000000     0.931960000000     0.681450000000    -0.547501   
O221     O      0.647260000000     0.868390000000     0.674020000000    -0.564932   
O222     O      0.706150000000     0.806760000000     0.639880000000    -0.557893   
O223     O      0.679290000000     0.818590000000     0.700800000000    -0.554848   
O224     O      0.673900000000     0.858790000000     0.613270000000    -0.55316    
O225     O      0.927130000000     0.723410000000     0.621540000000    -0.554249   
O226     O      0.890870000000     0.726510000000     0.532580000000    -0.5521     
O227     O      0.879090000000     0.756170000000     0.591920000000    -0.554128   
O228     O      0.939590000000     0.692750000000     0.562430000000    -0.548133   
O229     O      0.875670000000     0.626020000000     0.570300000000    -0.562022   
O230     O      0.815350000000     0.689110000000     0.599330000000    -0.555284   
O231     O      0.828030000000     0.658620000000     0.540170000000    -0.556397   
O232     O      0.864170000000     0.655590000000     0.629130000000    -0.555649   
O233     O      0.564590000000     0.052540000000     0.779190000000    -0.559533   
O234     O      0.526010000000     0.054450000000     0.690870000000    -0.558874   
O235     O      0.509760000000     0.077100000000     0.750470000000    -0.56873    
O236     O      0.583180000000     0.029790000000     0.719030000000    -0.559572   
O237     O      0.524960000000     0.958580000000     0.725430000000    -0.55836    
O238     O      0.450650000000     0.006260000000     0.756350000000    -0.552645   
O239     O      0.468680000000     0.982620000000     0.697150000000    -0.56493    
O240     O      0.506690000000     0.980960000000     0.785220000000    -0.560962   
O241     O      0.304530000000     0.145270000000     0.512080000000    -0.559243   
O242     O      0.313270000000     0.195830000000     0.597740000000    -0.560624   
O243     O      0.334920000000     0.230750000000     0.535530000000    -0.554195   
O244     O      0.284050000000     0.112090000000     0.574130000000    -0.562287   
O245     O      0.353530000000     0.120980000000     0.579450000000    -0.561097   
O246     O      0.404200000000     0.239240000000     0.541390000000    -0.567352   
O247     O      0.383220000000     0.206000000000     0.603630000000    -0.556874   
O248     O      0.374750000000     0.155960000000     0.517560000000    -0.560726   
O249     O      0.512430000000     0.540320000000     0.531870000000    -0.553786   
O250     O      0.480730000000     0.508590000000     0.941190000000    -0.555496   
O251     O      0.458480000000     0.461420000000     0.499270000000    -0.554373   
O252     O      0.533860000000     0.585830000000     0.973760000000    -0.561882   
O253     O      0.593020000000     0.574580000000     0.968150000000    -0.556694   
O254     O      0.517660000000     0.450290000000     0.493240000000    -0.564479   
O255     O      0.539020000000     0.495930000000     0.935390000000    -0.553822   
O256     O      0.570490000000     0.527250000000     0.526250000000    -0.554385   
O257     O      0.187110000000     0.899500000000     0.735030000000    -0.560899   
O258     O      0.154300000000     0.862230000000     0.645500000000    -0.560376   
O259     O      0.134970000000     0.818220000000     0.704570000000    -0.560277   
O260     O      0.204670000000     0.941600000000     0.676340000000    -0.568656   
O261     O      0.265720000000     0.933590000000     0.670090000000    -0.555427   
O262     O      0.196250000000     0.810250000000     0.700040000000    -0.561355   
O263     O      0.214070000000     0.851710000000     0.640550000000    -0.561278   
O264     O      0.247830000000     0.890660000000     0.729380000000    -0.564389   
O265     O      0.993740000000     0.533570000000     0.804300000000    -0.565676   
O266     O      0.995810000000     0.543470000000     0.710780000000    -0.566167   
O267     O      0.967520000000     0.474170000000     0.753690000000    -0.55849    
O268     O      0.023300000000     0.604060000000     0.760990000000    -0.553025   
O269     O      0.091560000000     0.609270000000     0.760730000000    -0.567132   
O270     O      0.036080000000     0.480190000000     0.752170000000    -0.558383   
O271     O      0.065230000000     0.551300000000     0.709770000000    -0.565764   
O272     O      0.062610000000     0.540080000000     0.803390000000    -0.564947   
O273     O      0.861870000000     0.216680000000     0.850400000000    -0.556611   
O274     O      0.818240000000     0.171940000000     0.763530000000    -0.558316   
O275     O      0.809500000000     0.132310000000     0.823200000000    -0.557892   
O276     O      0.869080000000     0.254430000000     0.790990000000    -0.563855   
O277     O      0.931920000000     0.250690000000     0.781200000000    -0.549225   
O278     O      0.872100000000     0.127920000000     0.813960000000    -0.55642    
O279     O      0.879860000000     0.165660000000     0.754210000000    -0.557404   
O280     O      0.923610000000     0.210770000000     0.840690000000    -0.559185   
O281     O      0.678360000000     0.837810000000     0.862930000000    -0.555898   
O282     O      0.679770000000     0.879910000000     0.950760000000    -0.558318   
O283     O      0.708170000000     0.921450000000     0.891010000000    -0.557346   
O284     O      0.651150000000     0.799240000000     0.922910000000    -0.565316   
O285     O      0.719090000000     0.805330000000     0.931040000000    -0.551652   
O286     O      0.776350000000     0.928150000000     0.899060000000    -0.557507   
O287     O      0.748670000000     0.888210000000     0.958910000000    -0.553692   
O288     O      0.747300000000     0.846220000000     0.870980000000    -0.55547    
V1       V      0.851200000000     0.653550000000     0.334830000000     1.39665    
V2       V      0.860010000000     0.728560000000     0.326870000000     1.38158    
V3       V      0.176320000000     0.811980000000     0.431160000000     1.39603    
V4       V      0.172340000000     0.881080000000     0.437940000000     1.39442    
V5       V      0.522940000000     0.979210000000     0.493110000000     1.39434    
V6       V      0.531160000000     0.054100000000     0.985790000000     1.39594    
V7       V      0.178640000000     0.303490000000     0.167560000000     1.3854     
V8       V      0.186720000000     0.378440000000     0.161330000000     1.39313    
V9       V      0.877280000000     0.157440000000     0.049240000000     1.39355    
V10      V      0.870190000000     0.224870000000     0.055350000000     1.39617    
V11      V      0.530180000000     0.484360000000     0.230520000000     1.38502    
V12      V      0.516650000000     0.547660000000     0.237660000000     1.38782    
V13      V      0.212970000000     0.376310000000     0.410170000000     1.39105    
V14      V      0.149500000000     0.299960000000     0.418130000000     1.38824    
V15      V      0.377450000000     0.214770000000     0.312250000000     1.3994     
V16      V      0.303270000000     0.147350000000     0.307180000000     1.38792    
V17      V      0.062960000000     0.531620000000     0.509970000000     1.41045    
V18      V      0.987530000000     0.465300000000     0.010990000000     1.38908    
V19      V      0.747210000000     0.903400000000     0.164660000000     1.37456    
V20      V      0.674110000000     0.835550000000     0.156560000000     1.39325    
V21      V      0.911750000000     0.727360000000     0.076710000000     1.37186    
V22      V      0.843200000000     0.654810000000     0.085090000000     1.3923     
V23      V      0.548370000000     0.056190000000     0.234560000000     1.4004     
V24      V      0.485480000000     0.979220000000     0.241350000000     1.38899    
V25      V      0.306440000000     0.170710000000     0.054590000000     1.39011    
V26      V      0.381660000000     0.180870000000     0.060860000000     1.40002    
V27      V      0.493980000000     0.524420000000     0.986810000000     1.38403    
V28      V      0.557460000000     0.511680000000     0.480500000000     1.3886     
V29      V      0.167740000000     0.880550000000     0.190630000000     1.40213    
V30      V      0.233440000000     0.871260000000     0.184740000000     1.39462    
V31      V      0.992360000000     0.538640000000     0.257560000000     1.39296    
V32      V      0.066530000000     0.545270000000     0.256500000000     1.40627    
V33      V      0.837130000000     0.193870000000     0.307480000000     1.39539    
V34      V      0.904420000000     0.188700000000     0.296990000000     1.38194    
V35      V      0.676800000000     0.859570000000     0.406370000000     1.39729    
V36      V      0.750590000000     0.867230000000     0.415300000000     1.37714    
V37      V      0.851200000000     0.653550000000     0.834830000000     1.39659    
V38      V      0.860010000000     0.728560000000     0.826870000000     1.38168    
V39      V      0.176320000000     0.811980000000     0.931160000000     1.39602    
V40      V      0.172340000000     0.881080000000     0.937940000000     1.39442    
V41      V      0.522940000000     0.979210000000     0.993110000000     1.3943     
V42      V      0.531170000000     0.054100000000     0.485790000000     1.39597    
V43      V      0.178640000000     0.303490000000     0.667550000000     1.38542    
V44      V      0.186720000000     0.378440000000     0.661330000000     1.39314    
V45      V      0.877280000000     0.157440000000     0.549240000000     1.39375    
V46      V      0.870200000000     0.224870000000     0.555350000000     1.39609    
V47      V      0.530180000000     0.484360000000     0.730520000000     1.38483    
V48      V      0.516650000000     0.547660000000     0.737660000000     1.38792    
V49      V      0.212970000000     0.376310000000     0.910170000000     1.39097    
V50      V      0.149500000000     0.299960000000     0.918140000000     1.38805    
V51      V      0.377450000000     0.214770000000     0.812250000000     1.39939    
V52      V      0.303270000000     0.147350000000     0.807180000000     1.38791    
V53      V      0.062960000000     0.531620000000     0.009970000000     1.41028    
V54      V      0.987530000000     0.465300000000     0.510990000000     1.3894     
V55      V      0.747200000000     0.903400000000     0.664660000000     1.37452    
V56      V      0.674110000000     0.835550000000     0.656560000000     1.39314    
V57      V      0.911750000000     0.727360000000     0.576710000000     1.3719     
V58      V      0.843200000000     0.654810000000     0.585090000000     1.39227    
V59      V      0.548370000000     0.056190000000     0.734560000000     1.40067    
V60      V      0.485480000000     0.979220000000     0.741350000000     1.38893    
V61      V      0.306440000000     0.170710000000     0.554590000000     1.39012    
V62      V      0.381660000000     0.180870000000     0.560860000000     1.4        
V63      V      0.493980000000     0.524420000000     0.486810000000     1.38411    
V64      V      0.557460000000     0.511670000000     0.980500000000     1.38864    
V65      V      0.167740000000     0.880550000000     0.690630000000     1.40215    
V66      V      0.233440000000     0.871260000000     0.684740000000     1.39467    
V67      V      0.992360000000     0.538640000000     0.757560000000     1.39291    
V68      V      0.066530000000     0.545280000000     0.756500000000     1.40623    
V69      V      0.837130000000     0.193870000000     0.807480000000     1.3954     
V70      V      0.904420000000     0.188700000000     0.796990000000     1.38194    
V71      V      0.676810000000     0.859570000000     0.906370000000     1.3972     
V72      V      0.750590000000     0.867230000000     0.915300000000     1.37694    


