data_structure

_audit_creation_method RASPA-1.0
_audit_creation_date 2023-5-22
_audit_author_name 'Poobodin Mano'

_cell_length_a    42.1412
_cell_length_b    41.9842
_cell_length_c    41.943
_cell_angle_alpha 90
_cell_angle_beta  89.9998
_cell_angle_gamma 89.9998
_cell_volume      74208.3

_symmetry_cell_setting          triclinic
_symmetry_space_group_name_Hall 'P 1'
_symmetry_space_group_name_H-M  'P 1'
_symmetry_Int_Tables_number     1

_symmetry_equiv_pos_as_xyz 'x,y,z'

loop_
_atom_site_label
_atom_site_type_symbol
_atom_site_fract_x
_atom_site_fract_y
_atom_site_fract_z
_atom_site_charge
C1       C      0.996440000000     0.068260000000     0.508620000000     0.473322   
C2       C      0.000000000000     0.448190000000     0.502670000000     0.471943   
C3       C      0.057330000000     0.509820000000     0.007330000000     0.465941   
C4       C      0.437390000000     0.506640000000     0.005580000000     0.463597   
C5       C      0.509830000000     0.068970000000     0.249320000000     0.46991    
C6       C      0.511820000000     0.449370000000     0.264080000000     0.472119   
C7       C      0.450790000000     0.508370000000     0.255970000000     0.473347   
C8       C      0.070800000000     0.509920000000     0.255830000000     0.471449   
C9       C      0.502550000000     0.258670000000     0.068480000000     0.472478   
C10      C      0.502710000000     0.257690000000     0.447630000000     0.470417   
C11      C      0.999480000000     0.318260000000     0.507560000000     0.477583   
C12      C      0.005120000000     0.198200000000     0.510810000000     0.47145    
C13      C      0.005370000000     0.268980000000     0.197420000000     0.470058   
C14      C      0.006010000000     0.251200000000     0.316960000000     0.467816   
C15      C      0.503660000000     0.319760000000     0.263840000000     0.472677   
C16      C      0.508770000000     0.200350000000     0.248050000000     0.471322   
C17      C      0.247800000000     0.004050000000     0.066590000000     0.463056   
C18      C      0.244880000000     0.996760000000     0.445920000000     0.482726   
C19      C      0.307040000000     0.499480000000     0.503870000000     0.473785   
C20      C      0.187080000000     0.501120000000     0.506410000000     0.475317   
C21      C      0.262020000000     0.004300000000     0.196820000000     0.463434   
C22      C      0.261340000000     0.997020000000     0.317520000000     0.48315    
C23      C      0.200990000000     0.501160000000     0.257850000000     0.473476   
C24      C      0.321020000000     0.500120000000     0.258710000000     0.474768   
C25      C      0.240840000000     0.464940000000     0.395880000000    -0.00901117 
C26      C      0.239510000000     0.024650000000     0.394410000000    -0.0111948  
C27      C      0.264050000000     0.464980000000     0.367500000000    -0.00915665 
C28      C      0.265290000000     0.024800000000     0.369200000000    -0.0112055  
C29      C      0.244820000000     0.536030000000     0.116640000000    -0.00952578 
C30      C      0.243580000000     0.476230000000     0.118290000000    -0.00782354 
C31      C      0.265990000000     0.036120000000     0.146690000000    -0.0099893  
C32      C      0.267600000000     0.976420000000     0.145260000000    -0.00396163 
C33      C      0.477000000000     0.236990000000     0.366590000000    -0.00873376 
C34      C      0.035740000000     0.245540000000     0.367780000000    -0.00870006 
C35      C      0.473150000000     0.257630000000     0.396470000000    -0.00887678 
C36      C      0.032250000000     0.266580000000     0.397340000000    -0.00898116 
C37      C      0.473060000000     0.257310000000     0.119610000000    -0.00846361 
C38      C      0.532730000000     0.253250000000     0.118840000000    -0.00840311 
C39      C      0.975310000000     0.280340000000     0.147770000000    -0.00672218 
C40      C      0.034540000000     0.276640000000     0.146640000000    -0.00818401 
C41      C      0.149740000000     0.477590000000     0.243010000000    -0.00689013 
C42      C      0.153210000000     0.019660000000     0.285690000000    -0.00874412 
C43      C      0.120270000000     0.493840000000     0.229470000000    -0.00684373 
C44      C      0.120820000000     0.032810000000     0.275360000000    -0.00810628 
C45      C      0.368920000000     0.020140000000     0.285440000000    -0.0133578  
C46      C      0.372060000000     0.474480000000     0.246660000000    -0.00684359 
C47      C      0.400690000000     0.032870000000     0.273160000000    -0.00711061 
C48      C      0.401370000000     0.489450000000     0.231430000000    -0.00730306 
C49      C      0.020210000000     0.368400000000     0.236700000000    -0.00700835 
C50      C      0.479940000000     0.370920000000     0.281070000000    -0.00730049 
C51      C      0.036120000000     0.398390000000     0.249230000000    -0.0070943  
C52      C      0.496450000000     0.400970000000     0.294110000000    -0.00826769 
C53      C      0.483480000000     0.116610000000     0.228540000000    -0.00963664 
C54      C      0.028110000000     0.120150000000     0.269020000000    -0.00583902 
C55      C      0.489410000000     0.152070000000     0.220190000000    -0.00883167 
C56      C      0.039030000000     0.150770000000     0.253400000000    -0.00754462 
C57      C      0.107290000000     0.032250000000     0.487340000000    -0.00756449 
C58      C      0.106480000000     0.995490000000     0.035050000000     0.00591854 
C59      C      0.139580000000     0.518500000000     0.477700000000    -0.00783494 
C60      C      0.135880000000     0.478510000000     0.022410000000    -0.00696834 
C61      C      0.387850000000     0.488490000000     0.030400000000    -0.00533686 
C62      C      0.387460000000     0.030540000000     0.987270000000     0.00568508 
C63      C      0.358000000000     0.473710000000     0.516050000000    -0.00677834 
C64      C      0.354890000000     0.018480000000     0.476290000000    -0.012804   
C65      C      0.472740000000     0.367710000000     0.991250000000     0.00685601 
C66      C      0.016430000000     0.368220000000     0.032520000000    -0.00986029 
C67      C      0.486780000000     0.397680000000     0.476050000000    -0.00722268 
C68      C      0.028280000000     0.399920000000     0.519240000000    -0.0065278  
C69      C      0.030800000000     0.147180000000     0.498680000000    -0.00573683 
C70      C      0.488480000000     0.150650000000     0.040740000000    -0.007315   
C71      C      0.014550000000     0.118060000000     0.484500000000    -0.012067   
C72      C      0.475200000000     0.118260000000     0.030290000000    -0.00942182 
C73      C      0.996440000000     0.068260000000     0.008620000000     0.464328   
C74      C      0.000000000000     0.448190000000     0.002670000000     0.462662   
C75      C      0.057330000000     0.509820000000     0.507330000000     0.474461   
C76      C      0.437390000000     0.506640000000     0.505580000000     0.472229   
C77      C      0.509830000000     0.068970000000     0.749320000000     0.469909   
C78      C      0.511820000000     0.449370000000     0.764080000000     0.472096   
C79      C      0.450790000000     0.508370000000     0.755970000000     0.473325   
C80      C      0.070800000000     0.509920000000     0.755830000000     0.471755   
C81      C      0.502550000000     0.258670000000     0.568480000000     0.473063   
C82      C      0.502710000000     0.257690000000     0.947630000000     0.469605   
C83      C      0.999480000000     0.318260000000     0.007560000000     0.476556   
C84      C      0.005120000000     0.198200000000     0.010810000000     0.470442   
C85      C      0.005370000000     0.268980000000     0.697420000000     0.470064   
C86      C      0.006010000000     0.251200000000     0.816960000000     0.467784   
C87      C      0.503660000000     0.319760000000     0.763840000000     0.472672   
C88      C      0.508770000000     0.200350000000     0.748050000000     0.471324   
C89      C      0.247800000000     0.004050000000     0.566590000000     0.463642   
C90      C      0.244880000000     0.996760000000     0.945920000000     0.481535   
C91      C      0.307040000000     0.499480000000     0.003870000000     0.472119   
C92      C      0.187080000000     0.501120000000     0.006410000000     0.473967   
C93      C      0.262020000000     0.004300000000     0.696820000000     0.463414   
C94      C      0.261340000000     0.997020000000     0.817520000000     0.483159   
C95      C      0.200990000000     0.501160000000     0.757850000000     0.473511   
C96      C      0.321020000000     0.500120000000     0.758710000000     0.474713   
C97      C      0.240840000000     0.464940000000     0.895880000000    -0.00909228 
C98      C      0.239510000000     0.024650000000     0.894410000000    -0.0112539  
C99      C      0.264050000000     0.464980000000     0.867500000000    -0.00912164 
C100     C      0.265290000000     0.024800000000     0.869200000000    -0.0111839  
C101     C      0.244820000000     0.536030000000     0.616640000000    -0.00952998 
C102     C      0.243580000000     0.476230000000     0.618280000000    -0.0077939  
C103     C      0.265990000000     0.036120000000     0.646690000000    -0.00999782 
C104     C      0.267600000000     0.976420000000     0.645260000000    -0.00405537 
C105     C      0.477000000000     0.236990000000     0.866590000000    -0.00870159 
C106     C      0.035740000000     0.245540000000     0.867780000000    -0.0086627  
C107     C      0.473150000000     0.257630000000     0.896470000000    -0.00894725 
C108     C      0.032250000000     0.266580000000     0.897340000000    -0.00906887 
C109     C      0.473060000000     0.257310000000     0.619610000000    -0.00839958 
C110     C      0.532730000000     0.253250000000     0.618840000000    -0.00845035 
C111     C      0.975310000000     0.280340000000     0.647770000000    -0.0067296  
C112     C      0.034540000000     0.276640000000     0.646630000000    -0.00823118 
C113     C      0.149740000000     0.477590000000     0.743010000000    -0.00692384 
C114     C      0.153210000000     0.019660000000     0.785690000000    -0.00877989 
C115     C      0.120270000000     0.493840000000     0.729470000000    -0.00683025 
C116     C      0.120820000000     0.032810000000     0.775360000000    -0.00809291 
C117     C      0.368920000000     0.020140000000     0.785440000000    -0.0133915  
C118     C      0.372060000000     0.474480000000     0.746660000000    -0.00687527 
C119     C      0.400690000000     0.032870000000     0.773160000000    -0.00711121 
C120     C      0.401370000000     0.489450000000     0.731430000000    -0.00730619 
C121     C      0.020210000000     0.368400000000     0.736700000000    -0.00700693 
C122     C      0.479940000000     0.370920000000     0.781070000000    -0.0072696  
C123     C      0.036120000000     0.398390000000     0.749230000000    -0.00712563 
C124     C      0.496440000000     0.400970000000     0.794110000000    -0.00836445 
C125     C      0.483480000000     0.116610000000     0.728540000000    -0.00964848 
C126     C      0.028110000000     0.120150000000     0.769010000000    -0.0057606  
C127     C      0.489410000000     0.152070000000     0.720190000000    -0.00884602 
C128     C      0.039030000000     0.150770000000     0.753400000000    -0.00759996 
C129     C      0.107290000000     0.032250000000     0.987330000000     0.0056088  
C130     C      0.106480000000     0.995490000000     0.535050000000     0.00637731 
C131     C      0.139580000000     0.518500000000     0.977700000000    -0.00549604 
C132     C      0.135880000000     0.478510000000     0.522410000000    -0.00658404 
C133     C      0.387850000000     0.488490000000     0.530400000000    -0.00739861 
C134     C      0.387460000000     0.030540000000     0.487270000000    -0.00769234 
C135     C      0.358000000000     0.473710000000     0.016050000000    -0.0164232  
C136     C      0.354890000000     0.018480000000     0.976290000000    -0.0110064  
C137     C      0.472740000000     0.367710000000     0.491250000000    -0.00697034 
C138     C      0.016430000000     0.368220000000     0.532520000000    -0.00985405 
C139     C      0.486780000000     0.397680000000     0.976050000000    -0.00553246 
C140     C      0.028280000000     0.399920000000     0.019240000000    -0.00737599 
C141     C      0.030800000000     0.147180000000     0.998680000000     0.0081509  
C142     C      0.488480000000     0.150650000000     0.540750000000    -0.00734591 
C143     C      0.014550000000     0.118060000000     0.984500000000    -0.0103936  
C144     C      0.475200000000     0.118260000000     0.530300000000    -0.00861025 
C145     C      0.996440000000     0.568260000000     0.508620000000     0.474      
C146     C      0.000000000000     0.948190000000     0.502670000000     0.470889   
C147     C      0.057330000000     0.009820000000     0.007330000000     0.46502    
C148     C      0.437390000000     0.006640000000     0.005580000000     0.462896   
C149     C      0.509830000000     0.568970000000     0.249320000000     0.470541   
C150     C      0.511820000000     0.949370000000     0.264080000000     0.471019   
C151     C      0.450790000000     0.008370000000     0.255970000000     0.472515   
C152     C      0.070800000000     0.009920000000     0.255830000000     0.470513   
C153     C      0.502550000000     0.758670000000     0.068480000000     0.472471   
C154     C      0.502710000000     0.757690000000     0.447630000000     0.470765   
C155     C      0.999480000000     0.818260000000     0.507560000000     0.477643   
C156     C      0.005120000000     0.698200000000     0.510810000000     0.47115    
C157     C      0.005370000000     0.768980000000     0.197420000000     0.470052   
C158     C      0.006010000000     0.751200000000     0.316960000000     0.467808   
C159     C      0.503660000000     0.819760000000     0.263840000000     0.472694   
C160     C      0.508770000000     0.700350000000     0.248050000000     0.471299   
C161     C      0.247800000000     0.504050000000     0.066590000000     0.471286   
C162     C      0.244880000000     0.496760000000     0.445920000000     0.474144   
C163     C      0.307040000000     0.999480000000     0.503870000000     0.48225    
C164     C      0.187080000000     0.001120000000     0.506410000000     0.467022   
C165     C      0.262020000000     0.504300000000     0.196820000000     0.47164    
C166     C      0.261340000000     0.497020000000     0.317520000000     0.474518   
C167     C      0.200990000000     0.001160000000     0.257850000000     0.465053   
C168     C      0.321020000000     0.000120000000     0.258710000000     0.46063    
C169     C      0.240840000000     0.964940000000     0.395880000000    -0.00832991 
C170     C      0.239510000000     0.524650000000     0.394410000000    -0.0073248  
C171     C      0.264050000000     0.964980000000     0.367500000000    -0.00843147 
C172     C      0.265290000000     0.524800000000     0.369200000000    -0.00736108 
C173     C      0.244820000000     0.036030000000     0.116640000000    -0.0101911  
C174     C      0.243580000000     0.976230000000     0.118290000000    -0.00391825 
C175     C      0.265990000000     0.536120000000     0.146690000000    -0.00929502 
C176     C      0.267600000000     0.476420000000     0.145260000000    -0.00787402 
C177     C      0.477000000000     0.736990000000     0.366590000000    -0.00874141 
C178     C      0.035740000000     0.745540000000     0.367780000000    -0.00869793 
C179     C      0.473150000000     0.757630000000     0.396470000000    -0.00889201 
C180     C      0.032250000000     0.766580000000     0.397340000000    -0.00901658 
C181     C      0.473060000000     0.757310000000     0.119610000000    -0.00838511 
C182     C      0.532730000000     0.753250000000     0.118840000000    -0.00845639 
C183     C      0.975310000000     0.780340000000     0.147770000000    -0.00676687 
C184     C      0.034540000000     0.776640000000     0.146640000000    -0.00822158 
C185     C      0.149740000000     0.977590000000     0.243010000000    -0.00531271 
C186     C      0.153210000000     0.519660000000     0.285690000000    -0.00795529 
C187     C      0.120270000000     0.993840000000     0.229470000000     0.00593555 
C188     C      0.120820000000     0.532810000000     0.275360000000    -0.00804476 
C189     C      0.368920000000     0.520140000000     0.285440000000    -0.00729041 
C190     C      0.372060000000     0.974480000000     0.246660000000    -0.0106467  
C191     C      0.400690000000     0.532870000000     0.273160000000    -0.00843781 
C192     C      0.401370000000     0.989450000000     0.231430000000     0.00692449 
C193     C      0.020210000000     0.868400000000     0.236700000000    -0.00698813 
C194     C      0.479940000000     0.870920000000     0.281070000000    -0.00719724 
C195     C      0.036120000000     0.898390000000     0.249230000000    -0.00715763 
C196     C      0.496440000000     0.900970000000     0.294110000000    -0.00844539 
C197     C      0.483480000000     0.616610000000     0.228540000000    -0.00963173 
C198     C      0.028110000000     0.620150000000     0.269020000000    -0.00582011 
C199     C      0.489410000000     0.652070000000     0.220190000000    -0.00884479 
C200     C      0.039030000000     0.650770000000     0.253400000000    -0.00757237 
C201     C      0.107290000000     0.532250000000     0.487340000000    -0.00748016 
C202     C      0.106480000000     0.495490000000     0.035050000000    -0.00686536 
C203     C      0.139580000000     0.018500000000     0.477700000000    -0.00859624 
C204     C      0.135880000000     0.978510000000     0.022410000000    -0.00540847 
C205     C      0.387850000000     0.988490000000     0.030400000000     0.00852488 
C206     C      0.387460000000     0.530540000000     0.987270000000     0.00472102 
C207     C      0.358000000000     0.973710000000     0.516050000000    -0.00960035 
C208     C      0.354890000000     0.518480000000     0.476290000000    -0.00769004 
C209     C      0.472740000000     0.867710000000     0.991250000000     0.00694879 
C210     C      0.016430000000     0.868220000000     0.032520000000    -0.00987384 
C211     C      0.486780000000     0.897680000000     0.476050000000    -0.00734355 
C212     C      0.028280000000     0.899920000000     0.519240000000    -0.0066156  
C213     C      0.030800000000     0.647180000000     0.498680000000    -0.00577496 
C214     C      0.488480000000     0.650650000000     0.040740000000    -0.00733613 
C215     C      0.014550000000     0.618060000000     0.484500000000    -0.0120458  
C216     C      0.475200000000     0.618260000000     0.030290000000    -0.00941052 
C217     C      0.996440000000     0.568260000000     0.008620000000     0.465072   
C218     C      0.000000000000     0.948190000000     0.002670000000     0.461645   
C219     C      0.057330000000     0.009820000000     0.507330000000     0.473512   
C220     C      0.437390000000     0.006640000000     0.505580000000     0.471364   
C221     C      0.509830000000     0.568970000000     0.749320000000     0.470522   
C222     C      0.511820000000     0.949370000000     0.764080000000     0.471025   
C223     C      0.450790000000     0.008370000000     0.755970000000     0.472516   
C224     C      0.070800000000     0.009920000000     0.755830000000     0.470818   
C225     C      0.502550000000     0.758670000000     0.568480000000     0.473416   
C226     C      0.502710000000     0.757690000000     0.947630000000     0.469285   
C227     C      0.999480000000     0.818260000000     0.007560000000     0.476557   
C228     C      0.005120000000     0.698200000000     0.010810000000     0.470416   
C229     C      0.005370000000     0.768980000000     0.697420000000     0.470058   
C230     C      0.006010000000     0.751200000000     0.816960000000     0.467776   
C231     C      0.503660000000     0.819760000000     0.763840000000     0.472684   
C232     C      0.508770000000     0.700350000000     0.748050000000     0.4713     
C233     C      0.247800000000     0.504050000000     0.566590000000     0.471892   
C234     C      0.244880000000     0.496760000000     0.945920000000     0.472986   
C235     C      0.307040000000     0.999480000000     0.003870000000     0.480572   
C236     C      0.187080000000     0.001120000000     0.006410000000     0.465699   
C237     C      0.262020000000     0.504300000000     0.696820000000     0.471628   
C238     C      0.261340000000     0.497020000000     0.817520000000     0.474552   
C239     C      0.200990000000     0.001160000000     0.757850000000     0.465085   
C240     C      0.321020000000     0.000120000000     0.758710000000     0.460593   
C241     C      0.240840000000     0.964940000000     0.895880000000    -0.00841222 
C242     C      0.239510000000     0.524650000000     0.894410000000    -0.00739589 
C243     C      0.264050000000     0.964980000000     0.867500000000    -0.00839762 
C244     C      0.265290000000     0.524800000000     0.869200000000    -0.00734331 
C245     C      0.244820000000     0.036030000000     0.616640000000    -0.0102323  
C246     C      0.243590000000     0.976230000000     0.618280000000    -0.00382536 
C247     C      0.265990000000     0.536120000000     0.646690000000    -0.00930895 
C248     C      0.267600000000     0.476420000000     0.645260000000    -0.00791273 
C249     C      0.477000000000     0.736990000000     0.866590000000    -0.00870042 
C250     C      0.035740000000     0.745540000000     0.867780000000    -0.00865981 
C251     C      0.473150000000     0.757630000000     0.896470000000    -0.00898903 
C252     C      0.032250000000     0.766580000000     0.897340000000    -0.00910633 
C253     C      0.473060000000     0.757310000000     0.619610000000    -0.0084441  
C254     C      0.532730000000     0.753250000000     0.618840000000    -0.00836237 
C255     C      0.975310000000     0.780340000000     0.647770000000    -0.00678052 
C256     C      0.034540000000     0.776640000000     0.646630000000    -0.00827337 
C257     C      0.149740000000     0.977590000000     0.743010000000    -0.00534838 
C258     C      0.153210000000     0.519660000000     0.785690000000    -0.00799232 
C259     C      0.120270000000     0.993840000000     0.729470000000     0.0059407  
C260     C      0.120820000000     0.532810000000     0.775360000000    -0.00803088 
C261     C      0.368920000000     0.520140000000     0.785440000000    -0.00733458 
C262     C      0.372060000000     0.974480000000     0.746660000000    -0.0106795  
C263     C      0.400690000000     0.532870000000     0.773160000000    -0.00843448 
C264     C      0.401370000000     0.989450000000     0.731430000000     0.00691506 
C265     C      0.020210000000     0.868400000000     0.736700000000    -0.00698876 
C266     C      0.479940000000     0.870920000000     0.781070000000    -0.00719606 
C267     C      0.036120000000     0.898390000000     0.749230000000    -0.00718704 
C268     C      0.496440000000     0.900970000000     0.794110000000    -0.00848117 
C269     C      0.483480000000     0.616610000000     0.728540000000    -0.00964546 
C270     C      0.028110000000     0.620150000000     0.769010000000    -0.00574189 
C271     C      0.489410000000     0.652070000000     0.720190000000    -0.00885394 
C272     C      0.039030000000     0.650770000000     0.753400000000    -0.00762759 
C273     C      0.107290000000     0.532250000000     0.987330000000     0.00572175 
C274     C      0.106480000000     0.495490000000     0.535050000000    -0.00642638 
C275     C      0.139580000000     0.018500000000     0.977700000000    -0.00626347 
C276     C      0.135880000000     0.978510000000     0.522410000000    -0.00501907 
C277     C      0.387850000000     0.988490000000     0.530400000000     0.00651124 
C278     C      0.387460000000     0.530540000000     0.487270000000    -0.00868762 
C279     C      0.358000000000     0.973710000000     0.016050000000    -0.0191918  
C280     C      0.354890000000     0.518480000000     0.976290000000    -0.00589697 
C281     C      0.472740000000     0.867710000000     0.491250000000    -0.00694947 
C282     C      0.016430000000     0.868220000000     0.532520000000    -0.00977106 
C283     C      0.486780000000     0.897680000000     0.976050000000    -0.00567641 
C284     C      0.028280000000     0.899920000000     0.019240000000    -0.00743344 
C285     C      0.030800000000     0.647180000000     0.998680000000     0.00812047 
C286     C      0.488480000000     0.650650000000     0.540750000000    -0.0073643  
C287     C      0.014550000000     0.618060000000     0.984500000000    -0.0103449  
C288     C      0.475200000000     0.618260000000     0.530300000000    -0.00860457 
C289     C      0.496440000000     0.068260000000     0.508620000000     0.472871   
C290     C      0.500000000000     0.448190000000     0.502670000000     0.474668   
C291     C      0.557330000000     0.509820000000     0.007330000000     0.465274   
C292     C      0.937390000000     0.506640000000     0.005580000000     0.463983   
C293     C      0.009830000000     0.068970000000     0.249320000000     0.469392   
C294     C      0.011820000000     0.449370000000     0.264080000000     0.471726   
C295     C      0.950790000000     0.508370000000     0.255970000000     0.472898   
C296     C      0.570800000000     0.509920000000     0.255830000000     0.471618   
C297     C      0.002550000000     0.258670000000     0.068480000000     0.469167   
C298     C      0.002710000000     0.257690000000     0.447630000000     0.467063   
C299     C      0.499480000000     0.318260000000     0.507560000000     0.474093   
C300     C      0.505120000000     0.198200000000     0.510810000000     0.47457    
C301     C      0.505370000000     0.268980000000     0.197420000000     0.473339   
C302     C      0.506010000000     0.251200000000     0.316960000000     0.471133   
C303     C      0.003660000000     0.319760000000     0.263840000000     0.469337   
C304     C      0.008770000000     0.200350000000     0.248050000000     0.468176   
C305     C      0.747800000000     0.004050000000     0.066590000000     0.463054   
C306     C      0.744880000000     0.996760000000     0.445920000000     0.48272    
C307     C      0.807040000000     0.499480000000     0.503870000000     0.473781   
C308     C      0.687080000000     0.501120000000     0.506410000000     0.475314   
C309     C      0.762020000000     0.004300000000     0.196820000000     0.463448   
C310     C      0.761340000000     0.997020000000     0.317520000000     0.483154   
C311     C      0.700990000000     0.501160000000     0.257850000000     0.473423   
C312     C      0.821020000000     0.500120000000     0.258710000000     0.474782   
C313     C      0.740840000000     0.464940000000     0.395880000000    -0.00901665 
C314     C      0.739510000000     0.024650000000     0.394410000000    -0.0112001  
C315     C      0.764050000000     0.464980000000     0.367500000000    -0.00916456 
C316     C      0.765290000000     0.024800000000     0.369200000000    -0.0112124  
C317     C      0.744820000000     0.536030000000     0.116640000000    -0.00952986 
C318     C      0.743580000000     0.476230000000     0.118290000000    -0.00782629 
C319     C      0.765990000000     0.036120000000     0.146690000000    -0.00999871 
C320     C      0.767600000000     0.976420000000     0.145260000000    -0.00397366 
C321     C      0.977000000000     0.236990000000     0.366590000000    -0.00714601 
C322     C      0.535740000000     0.245540000000     0.367780000000    -0.00844579 
C323     C      0.973150000000     0.257630000000     0.396470000000    -0.00726546 
C324     C      0.532250000000     0.266580000000     0.397340000000    -0.00872731 
C325     C      0.973060000000     0.257310000000     0.119610000000    -0.00686349 
C326     C      0.032730000000     0.253250000000     0.118840000000    -0.00863437 
C327     C      0.475310000000     0.280340000000     0.147770000000    -0.00830806 
C328     C      0.534540000000     0.276640000000     0.146640000000    -0.00790932 
C329     C      0.649740000000     0.477590000000     0.243010000000    -0.00690058 
C330     C      0.653210000000     0.019660000000     0.285690000000    -0.00875057 
C331     C      0.620270000000     0.493840000000     0.229470000000    -0.00684085 
C332     C      0.620820000000     0.032810000000     0.275360000000    -0.00810471 
C333     C      0.868920000000     0.020140000000     0.285440000000    -0.0133299  
C334     C      0.872060000000     0.474480000000     0.246660000000    -0.00681658 
C335     C      0.900690000000     0.032870000000     0.273160000000    -0.0071488  
C336     C      0.901370000000     0.489450000000     0.231430000000    -0.00735259 
C337     C      0.520210000000     0.368400000000     0.236700000000    -0.00675319 
C338     C      0.979940000000     0.370920000000     0.281070000000    -0.00661676 
C339     C      0.536110000000     0.398390000000     0.249230000000    -0.0069367  
C340     C      0.996450000000     0.400970000000     0.294110000000    -0.00306547 
C341     C      0.983480000000     0.116610000000     0.228540000000    -0.00871265 
C342     C      0.528110000000     0.120150000000     0.269020000000    -0.00569101 
C343     C      0.989410000000     0.152070000000     0.220190000000    -0.00387136 
C344     C      0.539030000000     0.150770000000     0.253400000000    -0.00737871 
C345     C      0.607290000000     0.032250000000     0.487340000000    -0.00760161 
C346     C      0.606480000000     0.995490000000     0.035050000000     0.00588414 
C347     C      0.639580000000     0.518500000000     0.477700000000    -0.00782336 
C348     C      0.635880000000     0.478510000000     0.022410000000    -0.00695845 
C349     C      0.887850000000     0.488490000000     0.030400000000    -0.00533193 
C350     C      0.887460000000     0.030540000000     0.987270000000     0.00567201 
C351     C      0.858000000000     0.473710000000     0.516050000000    -0.00677667 
C352     C      0.854890000000     0.018480000000     0.476290000000    -0.0127968  
C353     C      0.972740000000     0.367710000000     0.991250000000     0.00576543 
C354     C      0.516430000000     0.368220000000     0.032520000000    -0.00783026 
C355     C      0.986780000000     0.397680000000     0.476050000000    -0.00176676 
C356     C      0.528290000000     0.399920000000     0.519240000000    -0.00701804 
C357     C      0.530800000000     0.147180000000     0.498680000000    -0.00708638 
C358     C      0.988480000000     0.150650000000     0.040740000000    -0.00181923 
C359     C      0.514550000000     0.118060000000     0.484500000000    -0.00640074 
C360     C      0.975200000000     0.118260000000     0.030290000000    -0.0107285  
C361     C      0.496440000000     0.068260000000     0.008620000000     0.463855   
C362     C      0.500000000000     0.448190000000     0.002670000000     0.465348   
C363     C      0.557330000000     0.509820000000     0.507330000000     0.473827   
C364     C      0.937390000000     0.506640000000     0.505580000000     0.472601   
C365     C      0.009830000000     0.068970000000     0.749320000000     0.469379   
C366     C      0.011820000000     0.449370000000     0.764080000000     0.471716   
C367     C      0.950790000000     0.508370000000     0.755970000000     0.472887   
C368     C      0.570810000000     0.509920000000     0.755830000000     0.471888   
C369     C      0.002550000000     0.258670000000     0.568480000000     0.469735   
C370     C      0.002710000000     0.257690000000     0.947630000000     0.465936   
C371     C      0.499480000000     0.318260000000     0.007560000000     0.473083   
C372     C      0.505120000000     0.198200000000     0.010810000000     0.473545   
C373     C      0.505370000000     0.268980000000     0.697420000000     0.473354   
C374     C      0.506010000000     0.251200000000     0.816960000000     0.471109   
C375     C      0.003660000000     0.319760000000     0.763840000000     0.46932    
C376     C      0.008770000000     0.200350000000     0.748050000000     0.468168   
C377     C      0.747800000000     0.004050000000     0.566590000000     0.46364    
C378     C      0.744880000000     0.996760000000     0.945920000000     0.481528   
C379     C      0.807040000000     0.499480000000     0.003870000000     0.472114   
C380     C      0.687080000000     0.501120000000     0.006410000000     0.473961   
C381     C      0.762020000000     0.004300000000     0.696820000000     0.463402   
C382     C      0.761340000000     0.997020000000     0.817520000000     0.483139   
C383     C      0.700990000000     0.501160000000     0.757850000000     0.473509   
C384     C      0.821020000000     0.500120000000     0.758710000000     0.474715   
C385     C      0.740840000000     0.464940000000     0.895880000000    -0.00909646 
C386     C      0.739510000000     0.024650000000     0.894410000000    -0.0112592  
C387     C      0.764050000000     0.464980000000     0.867500000000    -0.00913057 
C388     C      0.765290000000     0.024800000000     0.869200000000    -0.0111911  
C389     C      0.744820000000     0.536030000000     0.616640000000    -0.00953368 
C390     C      0.743580000000     0.476230000000     0.618280000000    -0.00779663 
C391     C      0.765990000000     0.036120000000     0.646690000000    -0.0100079  
C392     C      0.767600000000     0.976420000000     0.645260000000    -0.00407092 
C393     C      0.977000000000     0.236990000000     0.866590000000    -0.00710833 
C394     C      0.535740000000     0.245540000000     0.867780000000    -0.008413   
C395     C      0.973150000000     0.257630000000     0.896470000000    -0.00734679 
C396     C      0.532250000000     0.266580000000     0.897340000000    -0.00879886 
C397     C      0.973060000000     0.257310000000     0.619610000000    -0.006865   
C398     C      0.032730000000     0.253250000000     0.618840000000    -0.00862598 
C399     C      0.475310000000     0.280340000000     0.647770000000    -0.00834411 
C400     C      0.534540000000     0.276640000000     0.646630000000    -0.0079725  
C401     C      0.649740000000     0.477590000000     0.743010000000    -0.00693644 
C402     C      0.653210000000     0.019660000000     0.785690000000    -0.0087818  
C403     C      0.620270000000     0.493840000000     0.729470000000    -0.00681125 
C404     C      0.620820000000     0.032810000000     0.775360000000    -0.00809989 
C405     C      0.868920000000     0.020140000000     0.785440000000    -0.0133637  
C406     C      0.872060000000     0.474480000000     0.746660000000    -0.0068484  
C407     C      0.900690000000     0.032870000000     0.773160000000    -0.00715033 
C408     C      0.901370000000     0.489450000000     0.731430000000    -0.0073556  
C409     C      0.520210000000     0.368400000000     0.736700000000    -0.00667886 
C410     C      0.979940000000     0.370920000000     0.781070000000    -0.00658872 
C411     C      0.536120000000     0.398390000000     0.749230000000    -0.00709034 
C412     C      0.996440000000     0.400970000000     0.794110000000    -0.00315266 
C413     C      0.983480000000     0.116610000000     0.728540000000    -0.00872324 
C414     C      0.528110000000     0.120150000000     0.769010000000    -0.00564287 
C415     C      0.989410000000     0.152070000000     0.720190000000    -0.00387467 
C416     C      0.539030000000     0.150770000000     0.753400000000    -0.00742217 
C417     C      0.607290000000     0.032250000000     0.987330000000     0.00561078 
C418     C      0.606480000000     0.995490000000     0.535050000000     0.00635431 
C419     C      0.639580000000     0.518500000000     0.977700000000    -0.00548254 
C420     C      0.635880000000     0.478510000000     0.522410000000    -0.00656641 
C421     C      0.887850000000     0.488490000000     0.530400000000    -0.00739246 
C422     C      0.887460000000     0.030540000000     0.487270000000    -0.00769108 
C423     C      0.858000000000     0.473710000000     0.016050000000    -0.016415   
C424     C      0.854890000000     0.018480000000     0.976290000000    -0.0109978  
C425     C      0.972740000000     0.367710000000     0.491250000000    -0.00803481 
C426     C      0.516430000000     0.368220000000     0.532520000000    -0.00776543 
C427     C      0.986780000000     0.397680000000     0.976050000000    -9.38064e-05
C428     C      0.528280000000     0.399920000000     0.019240000000    -0.00775218 
C429     C      0.530800000000     0.147180000000     0.998680000000     0.00686014 
C430     C      0.988480000000     0.150650000000     0.540750000000    -0.00182258 
C431     C      0.514550000000     0.118060000000     0.984500000000    -0.00472533 
C432     C      0.975200000000     0.118260000000     0.530300000000    -0.00992643 
C433     C      0.496440000000     0.568260000000     0.508620000000     0.473551   
C434     C      0.500000000000     0.948190000000     0.502670000000     0.4736     
C435     C      0.557330000000     0.009820000000     0.007330000000     0.464351   
C436     C      0.937390000000     0.006640000000     0.005580000000     0.463284   
C437     C      0.009830000000     0.568970000000     0.249320000000     0.47001    
C438     C      0.011820000000     0.949370000000     0.264080000000     0.470647   
C439     C      0.950790000000     0.008370000000     0.255970000000     0.472082   
C440     C      0.570800000000     0.009920000000     0.255830000000     0.470724   
C441     C      0.002550000000     0.758670000000     0.068480000000     0.469162   
C442     C      0.002710000000     0.757690000000     0.447630000000     0.467095   
C443     C      0.499480000000     0.818260000000     0.507560000000     0.474167   
C444     C      0.505120000000     0.698200000000     0.510810000000     0.474276   
C445     C      0.505370000000     0.768980000000     0.197420000000     0.473331   
C446     C      0.506010000000     0.751200000000     0.316960000000     0.471125   
C447     C      0.003660000000     0.819760000000     0.263840000000     0.469353   
C448     C      0.008770000000     0.700350000000     0.248050000000     0.468151   
C449     C      0.747800000000     0.504050000000     0.066590000000     0.471282   
C450     C      0.744880000000     0.496760000000     0.445920000000     0.474141   
C451     C      0.807040000000     0.999480000000     0.503870000000     0.482237   
C452     C      0.687080000000     0.001120000000     0.506410000000     0.467014   
C453     C      0.762020000000     0.504300000000     0.196820000000     0.47165    
C454     C      0.761340000000     0.497020000000     0.317520000000     0.474527   
C455     C      0.700990000000     0.001160000000     0.257850000000     0.465      
C456     C      0.821020000000     0.000120000000     0.258710000000     0.460663   
C457     C      0.740840000000     0.964940000000     0.395880000000    -0.00833597 
C458     C      0.739510000000     0.524650000000     0.394410000000    -0.00733033 
C459     C      0.764050000000     0.964980000000     0.367500000000    -0.00843926 
C460     C      0.765290000000     0.524800000000     0.369200000000    -0.00736985 
C461     C      0.744820000000     0.036030000000     0.116640000000    -0.0101948  
C462     C      0.743580000000     0.976230000000     0.118290000000    -0.00392205 
C463     C      0.765990000000     0.536120000000     0.146690000000    -0.00930447 
C464     C      0.767600000000     0.476420000000     0.145260000000    -0.00788412 
C465     C      0.977000000000     0.736990000000     0.366590000000    -0.00715134 
C466     C      0.535740000000     0.745540000000     0.367780000000    -0.00844906 
C467     C      0.973150000000     0.757630000000     0.396470000000    -0.00729421 
C468     C      0.532250000000     0.766580000000     0.397340000000    -0.00874659 
C469     C      0.973060000000     0.757310000000     0.119610000000    -0.00685801 
C470     C      0.032730000000     0.753250000000     0.118840000000    -0.00863101 
C471     C      0.475310000000     0.780340000000     0.147770000000    -0.00837541 
C472     C      0.534540000000     0.776640000000     0.146640000000    -0.00796404 
C473     C      0.649740000000     0.977590000000     0.243010000000    -0.00532373 
C474     C      0.653210000000     0.519660000000     0.285690000000    -0.00795692 
C475     C      0.620270000000     0.993840000000     0.229470000000     0.00596168 
C476     C      0.620820000000     0.532810000000     0.275360000000    -0.00805157 
C477     C      0.868920000000     0.520140000000     0.285440000000    -0.00727362 
C478     C      0.872060000000     0.974480000000     0.246660000000    -0.0106102  
C479     C      0.900690000000     0.532870000000     0.273160000000    -0.0084746  
C480     C      0.901370000000     0.989450000000     0.231430000000     0.00683681 
C481     C      0.520210000000     0.868400000000     0.236700000000    -0.00666087 
C482     C      0.979940000000     0.870920000000     0.281070000000    -0.00651885 
C483     C      0.536120000000     0.898390000000     0.249230000000    -0.00712268 
C484     C      0.996440000000     0.900970000000     0.294110000000    -0.00325562 
C485     C      0.983480000000     0.616610000000     0.228540000000    -0.00870725 
C486     C      0.528110000000     0.620150000000     0.269020000000    -0.00570235 
C487     C      0.989410000000     0.652070000000     0.220190000000    -0.00388479 
C488     C      0.539030000000     0.650770000000     0.253400000000    -0.0073949  
C489     C      0.607290000000     0.532250000000     0.487340000000    -0.00751732 
C490     C      0.606480000000     0.495490000000     0.035050000000    -0.00691246 
C491     C      0.639580000000     0.018500000000     0.477700000000    -0.00858628 
C492     C      0.635880000000     0.978510000000     0.022410000000    -0.00539248 
C493     C      0.887850000000     0.988490000000     0.030400000000     0.00849524 
C494     C      0.887460000000     0.530540000000     0.987270000000     0.00470984 
C495     C      0.858000000000     0.973710000000     0.516050000000    -0.00959123 
C496     C      0.854890000000     0.518480000000     0.476290000000    -0.00769192 
C497     C      0.972740000000     0.867710000000     0.991250000000     0.00585659 
C498     C      0.516430000000     0.868220000000     0.032520000000    -0.00780007 
C499     C      0.986780000000     0.897680000000     0.476050000000    -0.00189936 
C500     C      0.528290000000     0.899920000000     0.519240000000    -0.00710564 
C501     C      0.530800000000     0.647180000000     0.498680000000    -0.00712502 
C502     C      0.988480000000     0.650650000000     0.040740000000    -0.00183948 
C503     C      0.514550000000     0.618060000000     0.484500000000    -0.00637549 
C504     C      0.975200000000     0.618260000000     0.030290000000    -0.0107171  
C505     C      0.496440000000     0.568260000000     0.008620000000     0.464602   
C506     C      0.500000000000     0.948190000000     0.002670000000     0.464314   
C507     C      0.557330000000     0.009820000000     0.507330000000     0.472875   
C508     C      0.937390000000     0.006640000000     0.505580000000     0.471738   
C509     C      0.009830000000     0.568970000000     0.749320000000     0.469997   
C510     C      0.011820000000     0.949370000000     0.764080000000     0.47064    
C511     C      0.950790000000     0.008370000000     0.755970000000     0.47207    
C512     C      0.570800000000     0.009920000000     0.755830000000     0.470983   
C513     C      0.002550000000     0.758670000000     0.568480000000     0.470082   
C514     C      0.002710000000     0.757690000000     0.947630000000     0.465927   
C515     C      0.499480000000     0.818260000000     0.007560000000     0.473086   
C516     C      0.505120000000     0.698200000000     0.010810000000     0.473516   
C517     C      0.505370000000     0.768980000000     0.697420000000     0.473348   
C518     C      0.506010000000     0.751200000000     0.816960000000     0.471102   
C519     C      0.003660000000     0.819760000000     0.763840000000     0.469335   
C520     C      0.008770000000     0.700350000000     0.748050000000     0.468143   
C521     C      0.747800000000     0.504050000000     0.566590000000     0.47189    
C522     C      0.744880000000     0.496760000000     0.945920000000     0.472982   
C523     C      0.807040000000     0.999480000000     0.003870000000     0.480559   
C524     C      0.687080000000     0.001120000000     0.006410000000     0.465689   
C525     C      0.762020000000     0.504300000000     0.696820000000     0.471627   
C526     C      0.761340000000     0.497020000000     0.817520000000     0.474547   
C527     C      0.700990000000     0.001160000000     0.757850000000     0.465118   
C528     C      0.821020000000     0.000120000000     0.758710000000     0.460602   
C529     C      0.740840000000     0.964940000000     0.895880000000    -0.00841762 
C530     C      0.739510000000     0.524650000000     0.894410000000    -0.00736612 
C531     C      0.764050000000     0.964980000000     0.867500000000    -0.00840825 
C532     C      0.765290000000     0.524800000000     0.869200000000    -0.00736434 
C533     C      0.744820000000     0.036030000000     0.616640000000    -0.010236   
C534     C      0.743590000000     0.976230000000     0.618280000000    -0.00382818 
C535     C      0.765990000000     0.536120000000     0.646690000000    -0.00931986 
C536     C      0.767600000000     0.476420000000     0.645260000000    -0.00792304 
C537     C      0.977000000000     0.736990000000     0.866590000000    -0.00711258 
C538     C      0.535740000000     0.745540000000     0.867780000000    -0.00840478 
C539     C      0.973150000000     0.757630000000     0.896470000000    -0.00737816 
C540     C      0.532250000000     0.766580000000     0.897340000000    -0.00885239 
C541     C      0.973060000000     0.757310000000     0.619610000000    -0.00684086 
C542     C      0.032730000000     0.753250000000     0.618840000000    -0.00860858 
C543     C      0.475310000000     0.780340000000     0.647770000000    -0.00836974 
C544     C      0.534540000000     0.776640000000     0.646630000000    -0.0080381  
C545     C      0.649740000000     0.977590000000     0.743010000000    -0.00535027 
C546     C      0.653210000000     0.519660000000     0.785690000000    -0.0079972  
C547     C      0.620270000000     0.993840000000     0.729470000000     0.0059637  
C548     C      0.620820000000     0.532810000000     0.775360000000    -0.0080138  
C549     C      0.868920000000     0.520140000000     0.785440000000    -0.00731941 
C550     C      0.872060000000     0.974480000000     0.746660000000    -0.0106459  
C551     C      0.900690000000     0.532870000000     0.773160000000    -0.00846965 
C552     C      0.901370000000     0.989450000000     0.731430000000     0.00682832 
C553     C      0.520210000000     0.868400000000     0.736700000000    -0.00669381 
C554     C      0.979940000000     0.870920000000     0.781070000000    -0.00651518 
C555     C      0.536120000000     0.898390000000     0.749230000000    -0.00717116 
C556     C      0.996440000000     0.900970000000     0.794110000000    -0.00328553 
C557     C      0.983480000000     0.616610000000     0.728540000000    -0.0087181  
C558     C      0.528110000000     0.620150000000     0.769010000000    -0.00559306 
C559     C      0.989410000000     0.652070000000     0.720190000000    -0.00388788 
C560     C      0.539030000000     0.650770000000     0.753400000000    -0.00746134 
C561     C      0.607290000000     0.532250000000     0.987330000000     0.00572421 
C562     C      0.606480000000     0.495490000000     0.535050000000    -0.006485   
C563     C      0.639580000000     0.018500000000     0.977700000000    -0.00625067 
C564     C      0.635880000000     0.978510000000     0.522410000000    -0.00500728 
C565     C      0.887850000000     0.988490000000     0.530400000000     0.00648277 
C566     C      0.887460000000     0.530540000000     0.487270000000    -0.00868446 
C567     C      0.858000000000     0.973710000000     0.016050000000    -0.0191761  
C568     C      0.854890000000     0.518480000000     0.976290000000    -0.00589742 
C569     C      0.972740000000     0.867710000000     0.491250000000    -0.00801247 
C570     C      0.516430000000     0.868220000000     0.532520000000    -0.00768488 
C571     C      0.986780000000     0.897680000000     0.976050000000    -0.00024695 
C572     C      0.528290000000     0.899920000000     0.019240000000    -0.00792401 
C573     C      0.530800000000     0.647180000000     0.998680000000     0.00682951 
C574     C      0.988480000000     0.650650000000     0.540750000000    -0.00182648 
C575     C      0.514550000000     0.618060000000     0.984500000000    -0.00467572 
C576     C      0.975200000000     0.618260000000     0.530300000000    -0.00992514 
H1       H      0.216050000000     0.024870000000     0.382260000000     0.0333236  
H2       H      0.216410000000     0.461950000000     0.386320000000     0.0341313  
H3       H      0.258730000000     0.444260000000     0.351900000000     0.0381239  
H4       H      0.241370000000     0.046830000000     0.408730000000     0.0385934  
H5       H      0.263140000000     0.046990000000     0.354940000000     0.0386477  
H6       H      0.288760000000     0.025260000000     0.381340000000     0.0338096  
H7       H      0.246050000000     0.444100000000     0.411350000000     0.0380183  
H8       H      0.288460000000     0.461770000000     0.377030000000     0.0342089  
H9       H      0.219350000000     0.475430000000     0.128770000000     0.0349307  
H10      H      0.219830000000     0.539560000000     0.124360000000     0.0344836  
H11      H      0.259410000000     0.056800000000     0.161860000000     0.0380158  
H12      H      0.246980000000     0.454110000000     0.104150000000     0.0382075  
H13      H      0.264570000000     0.454280000000     0.159450000000     0.0383918  
H14      H      0.291840000000     0.975960000000     0.134760000000     0.036103   
H15      H      0.251410000000     0.056620000000     0.101370000000     0.0379135  
H16      H      0.290990000000     0.039570000000     0.138950000000     0.0334485  
H17      H      0.040660000000     0.220780000000     0.375790000000     0.0334704  
H18      H      0.478900000000     0.211710000000     0.374250000000     0.0344262  
H19      H      0.452960000000     0.248230000000     0.410700000000     0.038183   
H20      H      0.056540000000     0.253840000000     0.353780000000     0.0381974  
H21      H      0.053930000000     0.263880000000     0.412180000000     0.0386905  
H22      H      0.031030000000     0.291840000000     0.389440000000     0.0354073  
H23      H      0.455270000000     0.239240000000     0.351750000000     0.0385472  
H24      H      0.466930000000     0.282210000000     0.388830000000     0.0348371  
H25      H      0.533340000000     0.228650000000     0.128640000000     0.035347   
H26      H      0.469220000000     0.232890000000     0.129150000000     0.0342966  
H27      H      0.453840000000     0.277640000000     0.162910000000     0.0382937  
H28      H      0.054150000000     0.256410000000     0.103710000000     0.0384329  
H29      H      0.056100000000     0.271420000000     0.160950000000     0.0378357  
H30      H      0.037030000000     0.301090000000     0.136740000000     0.0327928  
H31      H      0.452000000000     0.263730000000     0.105020000000     0.0378476  
H32      H      0.975400000000     0.305050000000     0.138210000000     0.0344178  
H33      H      0.149300000000     0.003560000000     0.306370000000     0.0319972  
H34      H      0.142220000000     0.458490000000     0.259760000000     0.0372246  
H35      H      0.105170000000     0.475590000000     0.217610000000     0.0336874  
H36      H      0.168420000000     0.039590000000     0.294210000000     0.0353062  
H37      H      0.107000000000     0.039840000000     0.296840000000     0.0350918  
H38      H      0.125020000000     0.054850000000     0.261280000000     0.0331335  
H39      H      0.163390000000     0.466520000000     0.223170000000     0.0334144  
H40      H      0.127730000000     0.511580000000     0.211240000000     0.0382814  
H41      H      0.379790000000     0.457050000000     0.265060000000     0.0367169  
H42      H      0.373720000000     0.505680000000     0.307130000000     0.033447   
H43      H      0.414630000000     0.042550000000     0.293480000000     0.0361435  
H44      H      0.358340000000     0.461570000000     0.228030000000     0.0346033  
H45      H      0.416510000000     0.470160000000     0.221430000000     0.0356757  
H46      H      0.393720000000     0.005190000000     0.211530000000     0.0302606  
H47      H      0.353660000000     0.040450000000     0.292880000000     0.0368952  
H48      H      0.395690000000     0.053090000000     0.256790000000     0.0328674  
H49      H      0.459960000000     0.378390000000     0.265450000000     0.0364218  
H50      H      0.003160000000     0.375500000000     0.217750000000     0.0343469  
H51      H      0.046260000000     0.412130000000     0.228960000000     0.0356817  
H52      H      0.470110000000     0.356770000000     0.301210000000     0.0328972  
H53      H      0.478410000000     0.416810000000     0.305250000000     0.0350908  
H54      H      0.513660000000     0.393640000000     0.312810000000     0.0371954  
H55      H      0.038350000000     0.352790000000     0.225400000000     0.0355044  
H56      H      0.056180000000     0.391070000000     0.264810000000     0.0351137  
H57      H      0.013060000000     0.125930000000     0.290040000000     0.038999   
H58      H      0.461800000000     0.115300000000     0.243600000000     0.0317548  
H59      H      0.466270000000     0.164660000000     0.218320000000     0.0372952  
H60      H      0.049310000000     0.106780000000     0.277540000000     0.0324718  
H61      H      0.053320000000     0.164480000000     0.271000000000     0.036694   
H62      H      0.054380000000     0.144940000000     0.232620000000     0.0371809  
H63      H      0.478020000000     0.103140000000     0.206360000000     0.0358301  
H64      H      0.500370000000     0.152980000000     0.196100000000     0.032289   
H65      H      0.113950000000     0.014110000000     0.052360000000     0.0314344  
H66      H      0.111570000000     0.054840000000     0.500490000000     0.0331631  
H67      H      0.154920000000     0.037910000000     0.468280000000     0.0349352  
H68      H      0.091280000000     0.477900000000     0.047750000000     0.0331708  
H69      H      0.149500000000     0.468400000000     0.042770000000     0.032623   
H70      H      0.128350000000     0.458640000000     0.006580000000     0.0356187  
H71      H      0.093530000000     0.038400000000     0.465550000000     0.0344313  
H72      H      0.135630000000     0.501410000000     0.457840000000     0.0337907  
H73      H      0.383610000000     0.051670000000     0.002780000000     0.0258392  
H74      H      0.380860000000     0.504920000000     0.049980000000     0.0375176  
H75      H      0.344400000000     0.461480000000     0.035230000000     0.0357748  
H76      H      0.401220000000     0.038810000000     0.466200000000     0.0362393  
H77      H      0.339950000000     0.039080000000     0.469000000000     0.0362354  
H78      H      0.358540000000     0.003560000000     0.454690000000     0.0321596  
H79      H      0.402790000000     0.469200000000     0.040690000000     0.0339709  
H80      H      0.365060000000     0.455710000000     0.497930000000     0.0368749  
H81      H      0.000890000000     0.373390000000     0.053310000000     0.0336831  
H82      H      0.453720000000     0.374840000000     0.008190000000     0.0298765  
H83      H      0.467390000000     0.411760000000     0.464800000000     0.0346182  
H84      H      0.036930000000     0.354130000000     0.041470000000     0.035988   
H85      H      0.037300000000     0.414990000000     0.039100000000     0.0348181  
H86      H      0.048690000000     0.394880000000     0.503200000000     0.0336224  
H87      H      0.461990000000     0.352620000000     0.472290000000     0.0346628  
H88      H      0.503890000000     0.390480000000     0.457190000000     0.0375425  
H89      H      0.504650000000     0.146490000000     0.061280000000     0.0330953  
H90      H      0.049140000000     0.139200000000     0.016000000000     0.0291653  
H91      H      0.032870000000     0.102890000000     0.472870000000     0.0349125  
H92      H      0.468780000000     0.165980000000     0.049470000000     0.0356299  
H93      H      0.468560000000     0.104140000000     0.051730000000     0.0366539  
H94      H      0.453020000000     0.122590000000     0.516620000000     0.0336163  
H95      H      0.042590000000     0.160860000000     0.479280000000     0.0337998  
H96      H      0.997430000000     0.125960000000     0.465920000000     0.0411662  
H97      H      0.216050000000     0.024870000000     0.882260000000     0.0337088  
H98      H      0.216410000000     0.461950000000     0.886320000000     0.0346684  
H99      H      0.258730000000     0.444260000000     0.851900000000     0.0384251  
H100     H      0.241370000000     0.046830000000     0.908730000000     0.0393929  
H101     H      0.263140000000     0.046990000000     0.854940000000     0.0389408  
H102     H      0.288760000000     0.025260000000     0.881340000000     0.0342431  
H103     H      0.246050000000     0.444100000000     0.911350000000     0.0389664  
H104     H      0.288460000000     0.461770000000     0.877030000000     0.0346626  
H105     H      0.219350000000     0.475430000000     0.628770000000     0.0349784  
H106     H      0.219830000000     0.539560000000     0.624360000000     0.0345896  
H107     H      0.259410000000     0.056800000000     0.661860000000     0.0381214  
H108     H      0.246980000000     0.454110000000     0.604150000000     0.0384232  
H109     H      0.264570000000     0.454280000000     0.659440000000     0.0384925  
H110     H      0.291830000000     0.975960000000     0.634760000000     0.036213   
H111     H      0.251410000000     0.056620000000     0.601370000000     0.0381971  
H112     H      0.290990000000     0.039570000000     0.638950000000     0.0335407  
H113     H      0.040660000000     0.220780000000     0.875790000000     0.0339112  
H114     H      0.478900000000     0.211710000000     0.874250000000     0.034845   
H115     H      0.452960000000     0.248230000000     0.910700000000     0.0390725  
H116     H      0.056540000000     0.253840000000     0.853780000000     0.0385168  
H117     H      0.053930000000     0.263880000000     0.912180000000     0.0396313  
H118     H      0.031030000000     0.291840000000     0.889440000000     0.0359543  
H119     H      0.455270000000     0.239240000000     0.851750000000     0.0388334  
H120     H      0.466930000000     0.282210000000     0.888830000000     0.0353496  
H121     H      0.533340000000     0.228650000000     0.628640000000     0.0354361  
H122     H      0.469220000000     0.232890000000     0.629150000000     0.0343633  
H123     H      0.453840000000     0.277640000000     0.662910000000     0.0383982  
H124     H      0.054150000000     0.256410000000     0.603710000000     0.0386648  
H125     H      0.056100000000     0.271420000000     0.660950000000     0.037945   
H126     H      0.037030000000     0.301090000000     0.636740000000     0.0328746  
H127     H      0.452000000000     0.263730000000     0.605020000000     0.0380701  
H128     H      0.975400000000     0.305050000000     0.638210000000     0.0344923  
H129     H      0.149300000000     0.003560000000     0.806370000000     0.0321828  
H130     H      0.142220000000     0.458490000000     0.759760000000     0.0373341  
H131     H      0.105170000000     0.475590000000     0.717610000000     0.0336901  
H132     H      0.168420000000     0.039590000000     0.794210000000     0.035456   
H133     H      0.107000000000     0.039840000000     0.796840000000     0.0352261  
H134     H      0.125020000000     0.054850000000     0.761280000000     0.0331918  
H135     H      0.163390000000     0.466520000000     0.723170000000     0.0334518  
H136     H      0.127730000000     0.511580000000     0.711240000000     0.0382841  
H137     H      0.379790000000     0.457050000000     0.765060000000     0.0368119  
H138     H      0.373720000000     0.505680000000     0.807130000000     0.0336114  
H139     H      0.414630000000     0.042550000000     0.793480000000     0.0362653  
H140     H      0.358340000000     0.461570000000     0.728030000000     0.0346563  
H141     H      0.416510000000     0.470160000000     0.721430000000     0.0356856  
H142     H      0.393720000000     0.005190000000     0.711530000000     0.0302652  
H143     H      0.353660000000     0.040450000000     0.792880000000     0.0370427  
H144     H      0.395690000000     0.053090000000     0.756790000000     0.0329187  
H145     H      0.459960000000     0.378390000000     0.765450000000     0.0364728  
H146     H      0.003160000000     0.375500000000     0.717750000000     0.034344   
H147     H      0.046260000000     0.412130000000     0.728960000000     0.0357017  
H148     H      0.470110000000     0.356770000000     0.801210000000     0.0330619  
H149     H      0.478410000000     0.416810000000     0.805250000000     0.0352518  
H150     H      0.513660000000     0.393640000000     0.812810000000     0.0374327  
H151     H      0.038350000000     0.352790000000     0.725400000000     0.0355376  
H152     H      0.056180000000     0.391070000000     0.764810000000     0.0352322  
H153     H      0.013060000000     0.125930000000     0.790040000000     0.0390953  
H154     H      0.461800000000     0.115300000000     0.743600000000     0.0318137  
H155     H      0.466270000000     0.164660000000     0.718320000000     0.0373512  
H156     H      0.049310000000     0.106780000000     0.777540000000     0.0325369  
H157     H      0.053320000000     0.164480000000     0.771000000000     0.036823   
H158     H      0.054380000000     0.144940000000     0.732620000000     0.0372403  
H159     H      0.478020000000     0.103140000000     0.706360000000     0.0358385  
H160     H      0.500370000000     0.152980000000     0.696100000000     0.0323121  
H161     H      0.113950000000     0.014110000000     0.552360000000     0.0316474  
H162     H      0.111570000000     0.054840000000     0.000490000000     0.0258383  
H163     H      0.154920000000     0.037910000000     0.968280000000     0.0368271  
H164     H      0.091280000000     0.477900000000     0.547760000000     0.0331868  
H165     H      0.149500000000     0.468400000000     0.542770000000     0.0327654  
H166     H      0.128350000000     0.458640000000     0.506580000000     0.0372843  
H167     H      0.093530000000     0.038400000000     0.965550000000     0.033002   
H168     H      0.135630000000     0.501410000000     0.957840000000     0.0349702  
H169     H      0.383610000000     0.051670000000     0.502780000000     0.0329384  
H170     H      0.380860000000     0.504920000000     0.549980000000     0.0381372  
H171     H      0.344390000000     0.461480000000     0.535230000000     0.0343782  
H172     H      0.401220000000     0.038810000000     0.966200000000     0.034913   
H173     H      0.339950000000     0.039080000000     0.969000000000     0.0383459  
H174     H      0.358540000000     0.003560000000     0.954700000000     0.032976   
H175     H      0.402790000000     0.469200000000     0.540690000000     0.0351774  
H176     H      0.365060000000     0.455710000000     0.997930000000     0.0443974  
H177     H      0.000890000000     0.373390000000     0.553310000000     0.0339042  
H178     H      0.453720000000     0.374840000000     0.508190000000     0.0370392  
H179     H      0.467400000000     0.411760000000     0.964800000000     0.0359914  
H180     H      0.036930000000     0.354130000000     0.541480000000     0.0363088  
H181     H      0.037300000000     0.414990000000     0.539100000000     0.0348033  
H182     H      0.048690000000     0.394880000000     0.003200000000     0.0320237  
H183     H      0.461990000000     0.352620000000     0.972290000000     0.0338857  
H184     H      0.503890000000     0.390480000000     0.957190000000     0.0388644  
H185     H      0.504650000000     0.146490000000     0.561280000000     0.0333396  
H186     H      0.049140000000     0.139200000000     0.516000000000     0.0361721  
H187     H      0.032870000000     0.102890000000     0.972870000000     0.0363169  
H188     H      0.468780000000     0.165980000000     0.549470000000     0.0359581  
H189     H      0.468560000000     0.104140000000     0.551730000000     0.0365993  
H190     H      0.453020000000     0.122590000000     0.016620000000     0.032234   
H191     H      0.042590000000     0.160860000000     0.979280000000     0.033106   
H192     H      0.997430000000     0.125960000000     0.965920000000     0.0425111  
H193     H      0.216050000000     0.524870000000     0.382260000000     0.0341541  
H194     H      0.216410000000     0.961950000000     0.386320000000     0.035405   
H195     H      0.258730000000     0.944260000000     0.351900000000     0.0382409  
H196     H      0.241370000000     0.546830000000     0.408730000000     0.0381767  
H197     H      0.263140000000     0.546990000000     0.354940000000     0.0382441  
H198     H      0.288760000000     0.525260000000     0.381340000000     0.0347263  
H199     H      0.246050000000     0.944100000000     0.411350000000     0.038135   
H200     H      0.288460000000     0.961770000000     0.377030000000     0.0353374  
H201     H      0.219350000000     0.975430000000     0.128770000000     0.0361528  
H202     H      0.219820000000     0.039560000000     0.124360000000     0.0337103  
H203     H      0.259410000000     0.556800000000     0.161860000000     0.0379306  
H204     H      0.246980000000     0.954110000000     0.104150000000     0.0379621  
H205     H      0.264570000000     0.954280000000     0.159450000000     0.0381539  
H206     H      0.291840000000     0.475960000000     0.134760000000     0.0348587  
H207     H      0.251410000000     0.556620000000     0.101370000000     0.0378549  
H208     H      0.290990000000     0.539570000000     0.138950000000     0.0342504  
H209     H      0.040660000000     0.720780000000     0.375790000000     0.0334522  
H210     H      0.478900000000     0.711710000000     0.374250000000     0.0344125  
H211     H      0.452960000000     0.748230000000     0.410700000000     0.0381756  
H212     H      0.056540000000     0.753840000000     0.353780000000     0.0382149  
H213     H      0.053930000000     0.763880000000     0.412180000000     0.0387261  
H214     H      0.031030000000     0.791840000000     0.389440000000     0.035531   
H215     H      0.455270000000     0.739240000000     0.351750000000     0.0385438  
H216     H      0.466930000000     0.782210000000     0.388830000000     0.0349141  
H217     H      0.533340000000     0.728650000000     0.128640000000     0.035344   
H218     H      0.469220000000     0.732890000000     0.129150000000     0.034264   
H219     H      0.453840000000     0.777640000000     0.162910000000     0.0383473  
H220     H      0.054150000000     0.756410000000     0.103710000000     0.0384369  
H221     H      0.056100000000     0.771420000000     0.160950000000     0.037864   
H222     H      0.037030000000     0.801090000000     0.136740000000     0.0329192  
H223     H      0.452000000000     0.763730000000     0.105020000000     0.037853   
H224     H      0.975400000000     0.805050000000     0.138210000000     0.0345722  
H225     H      0.149300000000     0.503560000000     0.306370000000     0.0336423  
H226     H      0.142220000000     0.958490000000     0.259760000000     0.0383364  
H227     H      0.105170000000     0.975590000000     0.217610000000     0.0329645  
H228     H      0.168420000000     0.539590000000     0.294210000000     0.0353829  
H229     H      0.107000000000     0.539840000000     0.296840000000     0.035437   
H230     H      0.125020000000     0.554840000000     0.261280000000     0.0332954  
H231     H      0.163390000000     0.966520000000     0.223170000000     0.0346167  
H232     H      0.127730000000     0.011580000000     0.211240000000     0.0317717  
H233     H      0.379790000000     0.957050000000     0.265060000000     0.0387765  
H234     H      0.373720000000     0.005680000000     0.307130000000     0.0327394  
H235     H      0.414630000000     0.542550000000     0.293480000000     0.0367267  
H236     H      0.358340000000     0.961570000000     0.228030000000     0.0367177  
H237     H      0.416510000000     0.970160000000     0.221430000000     0.0346399  
H238     H      0.393720000000     0.505190000000     0.211530000000     0.0373826  
H239     H      0.353660000000     0.540450000000     0.292880000000     0.0359938  
H240     H      0.395690000000     0.553090000000     0.256790000000     0.033489   
H241     H      0.459960000000     0.878390000000     0.265450000000     0.0367257  
H242     H      0.003160000000     0.875500000000     0.217750000000     0.0346883  
H243     H      0.046260000000     0.912130000000     0.228960000000     0.0363618  
H244     H      0.470110000000     0.856770000000     0.301210000000     0.0330627  
H245     H      0.478410000000     0.916810000000     0.305250000000     0.0359977  
H246     H      0.513660000000     0.893640000000     0.312810000000     0.0377347  
H247     H      0.038350000000     0.852790000000     0.225400000000     0.0356396  
H248     H      0.056180000000     0.891070000000     0.264810000000     0.0355338  
H249     H      0.013060000000     0.625930000000     0.290040000000     0.0390224  
H250     H      0.461800000000     0.615300000000     0.243600000000     0.0317621  
H251     H      0.466270000000     0.664660000000     0.218320000000     0.0372935  
H252     H      0.049310000000     0.606780000000     0.277540000000     0.032492   
H253     H      0.053320000000     0.664480000000     0.271000000000     0.0366846  
H254     H      0.054380000000     0.644940000000     0.232620000000     0.0372037  
H255     H      0.478020000000     0.603140000000     0.206360000000     0.0359663  
H256     H      0.500370000000     0.652980000000     0.196100000000     0.0323227  
H257     H      0.113950000000     0.514110000000     0.052360000000     0.0378847  
H258     H      0.111570000000     0.554840000000     0.500490000000     0.0333031  
H259     H      0.154920000000     0.537910000000     0.468280000000     0.0350624  
H260     H      0.091280000000     0.977900000000     0.047750000000     0.0324845  
H261     H      0.149500000000     0.968400000000     0.042770000000     0.0339037  
H262     H      0.128350000000     0.958640000000     0.006580000000     0.0367231  
H263     H      0.093530000000     0.538400000000     0.465550000000     0.0347786  
H264     H      0.135630000000     0.001410000000     0.457840000000     0.0320859  
H265     H      0.383610000000     0.551670000000     0.002780000000     0.0263932  
H266     H      0.380860000000     0.004920000000     0.049980000000     0.0303607  
H267     H      0.344390000000     0.961480000000     0.035230000000     0.0372332  
H268     H      0.401220000000     0.538810000000     0.466200000000     0.0367947  
H269     H      0.339950000000     0.539080000000     0.469000000000     0.0359079  
H270     H      0.358540000000     0.503560000000     0.454690000000     0.0333406  
H271     H      0.402790000000     0.969200000000     0.040690000000     0.0329819  
H272     H      0.365060000000     0.955710000000     0.497930000000     0.0385998  
H273     H      0.000890000000     0.873390000000     0.053310000000     0.0340257  
H274     H      0.453720000000     0.874840000000     0.008190000000     0.0301797  
H275     H      0.467400000000     0.911760000000     0.464800000000     0.0354389  
H276     H      0.036930000000     0.854130000000     0.041470000000     0.0361351  
H277     H      0.037300000000     0.914990000000     0.039100000000     0.0355393  
H278     H      0.048690000000     0.894880000000     0.503200000000     0.0340923  
H279     H      0.461990000000     0.852620000000     0.472290000000     0.0348137  
H280     H      0.503890000000     0.890480000000     0.457190000000     0.0380309  
H281     H      0.504650000000     0.646490000000     0.061280000000     0.0331417  
H282     H      0.049140000000     0.639200000000     0.016000000000     0.029178   
H283     H      0.032870000000     0.602890000000     0.472870000000     0.0349557  
H284     H      0.468780000000     0.665980000000     0.049470000000     0.0356333  
H285     H      0.468560000000     0.604140000000     0.051730000000     0.0367723  
H286     H      0.453020000000     0.622590000000     0.516620000000     0.0336224  
H287     H      0.042590000000     0.660860000000     0.479280000000     0.0337983  
H288     H      0.997430000000     0.625960000000     0.465920000000     0.0411952  
H289     H      0.216050000000     0.524870000000     0.882260000000     0.0345353  
H290     H      0.216410000000     0.961950000000     0.886320000000     0.0359397  
H291     H      0.258730000000     0.944260000000     0.851900000000     0.0385419  
H292     H      0.241360000000     0.546830000000     0.908730000000     0.0389768  
H293     H      0.263140000000     0.546990000000     0.854940000000     0.0385382  
H294     H      0.288760000000     0.525260000000     0.881340000000     0.0351609  
H295     H      0.246050000000     0.944100000000     0.911350000000     0.0390799  
H296     H      0.288460000000     0.961770000000     0.877030000000     0.0357822  
H297     H      0.219350000000     0.975430000000     0.628770000000     0.0361929  
H298     H      0.219830000000     0.039560000000     0.624360000000     0.0338381  
H299     H      0.259410000000     0.556800000000     0.661860000000     0.0380366  
H300     H      0.246980000000     0.954110000000     0.604150000000     0.0381588  
H301     H      0.264570000000     0.954280000000     0.659440000000     0.0382651  
H302     H      0.291840000000     0.475960000000     0.634760000000     0.0349552  
H303     H      0.251420000000     0.556620000000     0.601370000000     0.0381299  
H304     H      0.290990000000     0.539570000000     0.638950000000     0.0343475  
H305     H      0.040660000000     0.720780000000     0.875790000000     0.0338932  
H306     H      0.478900000000     0.711710000000     0.874250000000     0.0348331  
H307     H      0.452960000000     0.748230000000     0.910700000000     0.0390841  
H308     H      0.056540000000     0.753840000000     0.853780000000     0.0385338  
H309     H      0.053930000000     0.763880000000     0.912180000000     0.0396673  
H310     H      0.031030000000     0.791840000000     0.889440000000     0.0360776  
H311     H      0.455270000000     0.739240000000     0.851750000000     0.038829   
H312     H      0.466930000000     0.782210000000     0.888830000000     0.0354365  
H313     H      0.533340000000     0.728650000000     0.628640000000     0.0353985  
H314     H      0.469220000000     0.732890000000     0.629150000000     0.0343528  
H315     H      0.453840000000     0.777640000000     0.662910000000     0.0384406  
H316     H      0.054150000000     0.756410000000     0.603710000000     0.0386612  
H317     H      0.056100000000     0.771420000000     0.660950000000     0.0379736  
H318     H      0.037030000000     0.801090000000     0.636740000000     0.0330003  
H319     H      0.452000000000     0.763730000000     0.605020000000     0.0380817  
H320     H      0.975400000000     0.805050000000     0.638210000000     0.0346449  
H321     H      0.149300000000     0.503560000000     0.806370000000     0.0338258  
H322     H      0.142220000000     0.958490000000     0.759760000000     0.0384427  
H323     H      0.105170000000     0.975590000000     0.717610000000     0.0329684  
H324     H      0.168420000000     0.539590000000     0.794210000000     0.0355305  
H325     H      0.107000000000     0.539840000000     0.796840000000     0.0355705  
H326     H      0.125020000000     0.554840000000     0.761280000000     0.0333525  
H327     H      0.163390000000     0.966520000000     0.723170000000     0.034655   
H328     H      0.127730000000     0.011580000000     0.711240000000     0.0317777  
H329     H      0.379790000000     0.957050000000     0.765060000000     0.0388662  
H330     H      0.373720000000     0.005680000000     0.807130000000     0.0328996  
H331     H      0.414630000000     0.542550000000     0.793480000000     0.03685    
H332     H      0.358340000000     0.961570000000     0.728030000000     0.0367638  
H333     H      0.416510000000     0.970160000000     0.721430000000     0.0346486  
H334     H      0.393720000000     0.505190000000     0.711530000000     0.0373863  
H335     H      0.353660000000     0.540450000000     0.792880000000     0.0361382  
H336     H      0.395680000000     0.553090000000     0.756790000000     0.0335375  
H337     H      0.459960000000     0.878390000000     0.765450000000     0.036782   
H338     H      0.003160000000     0.875500000000     0.717750000000     0.0346853  
H339     H      0.046260000000     0.912130000000     0.728960000000     0.036381   
H340     H      0.470110000000     0.856770000000     0.801210000000     0.0332327  
H341     H      0.478410000000     0.916810000000     0.805250000000     0.036136   
H342     H      0.513660000000     0.893640000000     0.812810000000     0.0379536  
H343     H      0.038350000000     0.852790000000     0.725400000000     0.0356729  
H344     H      0.056180000000     0.891070000000     0.764810000000     0.0356506  
H345     H      0.013060000000     0.625930000000     0.790040000000     0.0391189  
H346     H      0.461800000000     0.615300000000     0.743600000000     0.0318225  
H347     H      0.466270000000     0.664660000000     0.718320000000     0.0373485  
H348     H      0.049310000000     0.606780000000     0.777540000000     0.0325568  
H349     H      0.053320000000     0.664480000000     0.771000000000     0.0368132  
H350     H      0.054380000000     0.644940000000     0.732620000000     0.0372625  
H351     H      0.478020000000     0.603140000000     0.706360000000     0.0359754  
H352     H      0.500380000000     0.652980000000     0.696100000000     0.0323457  
H353     H      0.113950000000     0.514110000000     0.552360000000     0.0381088  
H354     H      0.111570000000     0.554840000000     0.000490000000     0.025961   
H355     H      0.154920000000     0.537910000000     0.968280000000     0.0369567  
H356     H      0.091280000000     0.977900000000     0.547760000000     0.0325007  
H357     H      0.149500000000     0.968400000000     0.542770000000     0.0340479  
H358     H      0.128350000000     0.958640000000     0.506580000000     0.0383871  
H359     H      0.093530000000     0.538400000000     0.965550000000     0.0333425  
H360     H      0.135630000000     0.001410000000     0.957840000000     0.0332661  
H361     H      0.383600000000     0.551670000000     0.502780000000     0.033511   
H362     H      0.380860000000     0.004920000000     0.549980000000     0.0309568  
H363     H      0.344390000000     0.961480000000     0.535230000000     0.0358437  
H364     H      0.401220000000     0.538810000000     0.966200000000     0.0354625  
H365     H      0.339950000000     0.539080000000     0.969000000000     0.0380245  
H366     H      0.358540000000     0.503560000000     0.954700000000     0.0341562  
H367     H      0.402800000000     0.969200000000     0.540690000000     0.0341775  
H368     H      0.365060000000     0.955710000000     0.997930000000     0.0460849  
H369     H      0.000890000000     0.873390000000     0.553310000000     0.0342153  
H370     H      0.453720000000     0.874840000000     0.508190000000     0.0373384  
H371     H      0.467400000000     0.911760000000     0.964800000000     0.0368002  
H372     H      0.036930000000     0.854130000000     0.541480000000     0.0364377  
H373     H      0.037300000000     0.914990000000     0.539100000000     0.0355313  
H374     H      0.048690000000     0.894880000000     0.003200000000     0.0324848  
H375     H      0.461990000000     0.852620000000     0.972290000000     0.0340225  
H376     H      0.503890000000     0.890480000000     0.957190000000     0.039351   
H377     H      0.504640000000     0.646490000000     0.561280000000     0.0333843  
H378     H      0.049140000000     0.639200000000     0.516000000000     0.0361899  
H379     H      0.032870000000     0.602890000000     0.972870000000     0.0363471  
H380     H      0.468770000000     0.665980000000     0.549470000000     0.0359503  
H381     H      0.468560000000     0.604140000000     0.551730000000     0.0367243  
H382     H      0.453020000000     0.622590000000     0.016620000000     0.0322364  
H383     H      0.042590000000     0.660860000000     0.979280000000     0.0331007  
H384     H      0.997420000000     0.625960000000     0.965920000000     0.0425353  
H385     H      0.716050000000     0.024870000000     0.382260000000     0.0333336  
H386     H      0.716410000000     0.461950000000     0.386320000000     0.0341411  
H387     H      0.758730000000     0.444260000000     0.351900000000     0.038128   
H388     H      0.741370000000     0.046830000000     0.408730000000     0.0385961  
H389     H      0.763140000000     0.046990000000     0.354940000000     0.038654   
H390     H      0.788760000000     0.025260000000     0.381340000000     0.0338323  
H391     H      0.746050000000     0.444100000000     0.411350000000     0.0380206  
H392     H      0.788460000000     0.461770000000     0.377030000000     0.0342331  
H393     H      0.719350000000     0.475430000000     0.128770000000     0.0349341  
H394     H      0.719830000000     0.539560000000     0.124360000000     0.0344918  
H395     H      0.759410000000     0.056800000000     0.161860000000     0.038021   
H396     H      0.746980000000     0.454110000000     0.104150000000     0.0382094  
H397     H      0.764570000000     0.454280000000     0.159450000000     0.0384014  
H398     H      0.791840000000     0.975960000000     0.134760000000     0.0361351  
H399     H      0.751410000000     0.056620000000     0.101370000000     0.0379161  
H400     H      0.790990000000     0.039570000000     0.138950000000     0.0334778  
H401     H      0.540660000000     0.220780000000     0.375790000000     0.033798   
H402     H      0.978900000000     0.211710000000     0.374250000000     0.0349798  
H403     H      0.952960000000     0.248230000000     0.410700000000     0.0381007  
H404     H      0.556540000000     0.253840000000     0.353780000000     0.0381656  
H405     H      0.553930000000     0.263880000000     0.412180000000     0.0386769  
H406     H      0.531030000000     0.291840000000     0.389440000000     0.0358105  
H407     H      0.955270000000     0.239240000000     0.351750000000     0.038485   
H408     H      0.966930000000     0.282210000000     0.388830000000     0.0351885  
H409     H      0.033340000000     0.228650000000     0.128640000000     0.0350217  
H410     H      0.969220000000     0.232890000000     0.129150000000     0.0347317  
H411     H      0.953840000000     0.277640000000     0.162910000000     0.0382515  
H412     H      0.554150000000     0.256410000000     0.103710000000     0.0383944  
H413     H      0.556110000000     0.271420000000     0.160950000000     0.0377622  
H414     H      0.537030000000     0.301090000000     0.136740000000     0.0330952  
H415     H      0.952000000000     0.263730000000     0.105020000000     0.0377761  
H416     H      0.475400000000     0.305050000000     0.138210000000     0.0338299  
H417     H      0.649300000000     0.003560000000     0.306370000000     0.0320272  
H418     H      0.642220000000     0.458490000000     0.259760000000     0.0372315  
H419     H      0.605170000000     0.475590000000     0.217610000000     0.0337342  
H420     H      0.668420000000     0.039590000000     0.294210000000     0.0353157  
H421     H      0.607000000000     0.039840000000     0.296840000000     0.0351588  
H422     H      0.625020000000     0.054850000000     0.261280000000     0.0331504  
H423     H      0.663390000000     0.466520000000     0.223170000000     0.0334155  
H424     H      0.627730000000     0.511580000000     0.211240000000     0.0383241  
H425     H      0.879790000000     0.457050000000     0.265060000000     0.0368327  
H426     H      0.873720000000     0.505680000000     0.307130000000     0.0335506  
H427     H      0.914630000000     0.042550000000     0.293480000000     0.0364283  
H428     H      0.858340000000     0.461570000000     0.228030000000     0.0346656  
H429     H      0.916510000000     0.470160000000     0.221430000000     0.0360009  
H430     H      0.893720000000     0.005190000000     0.211530000000     0.0304353  
H431     H      0.853660000000     0.040450000000     0.292880000000     0.0369375  
H432     H      0.895690000000     0.053090000000     0.256790000000     0.033026   
H433     H      0.959960000000     0.378390000000     0.265450000000     0.0368418  
H434     H      0.503150000000     0.375500000000     0.217750000000     0.0350178  
H435     H      0.546260000000     0.412130000000     0.228960000000     0.0357399  
H436     H      0.970110000000     0.356770000000     0.301210000000     0.0334418  
H437     H      0.978410000000     0.416810000000     0.305250000000     0.0347926  
H438     H      0.013660000000     0.393640000000     0.312810000000     0.0345252  
H439     H      0.538350000000     0.352790000000     0.225400000000     0.035543   
H440     H      0.556190000000     0.391070000000     0.264810000000     0.0351521  
H441     H      0.513060000000     0.125930000000     0.290040000000     0.0396367  
H442     H      0.961800000000     0.115300000000     0.243600000000     0.0321203  
H443     H      0.966270000000     0.164660000000     0.218320000000     0.0367285  
H444     H      0.549310000000     0.106780000000     0.277540000000     0.0325194  
H445     H      0.553320000000     0.164480000000     0.271000000000     0.0367212  
H446     H      0.554380000000     0.144940000000     0.232620000000     0.0373075  
H447     H      0.978020000000     0.103140000000     0.206360000000     0.0365935  
H448     H      0.000370000000     0.152980000000     0.196100000000     0.0294902  
H449     H      0.613950000000     0.014110000000     0.052360000000     0.0315337  
H450     H      0.611570000000     0.054840000000     0.500490000000     0.0332924  
H451     H      0.654920000000     0.037910000000     0.468280000000     0.0349577  
H452     H      0.591280000000     0.477900000000     0.047750000000     0.0332992  
H453     H      0.649500000000     0.468400000000     0.042770000000     0.032637   
H454     H      0.628350000000     0.458640000000     0.006580000000     0.0356544  
H455     H      0.593530000000     0.038400000000     0.465550000000     0.0346582  
H456     H      0.635630000000     0.501410000000     0.457840000000     0.0338532  
H457     H      0.883610000000     0.051670000000     0.002780000000     0.0258724  
H458     H      0.880860000000     0.504920000000     0.049980000000     0.0375976  
H459     H      0.844400000000     0.461480000000     0.035230000000     0.0358169  
H460     H      0.901220000000     0.038810000000     0.466200000000     0.0363386  
H461     H      0.839950000000     0.039080000000     0.469000000000     0.0362552  
H462     H      0.858540000000     0.003560000000     0.454690000000     0.032223   
H463     H      0.902790000000     0.469200000000     0.040690000000     0.0341916  
H464     H      0.865060000000     0.455710000000     0.497930000000     0.0369459  
H465     H      0.500890000000     0.373390000000     0.053310000000     0.0341329  
H466     H      0.953720000000     0.374840000000     0.008190000000     0.0305343  
H467     H      0.967390000000     0.411760000000     0.464800000000     0.0339832  
H468     H      0.536930000000     0.354130000000     0.041470000000     0.0358559  
H469     H      0.537300000000     0.414990000000     0.039100000000     0.0350293  
H470     H      0.548690000000     0.394880000000     0.503200000000     0.0339676  
H471     H      0.961990000000     0.352620000000     0.472290000000     0.035261   
H472     H      0.003890000000     0.390480000000     0.457190000000     0.03457    
H473     H      0.004650000000     0.146490000000     0.061280000000     0.0302177  
H474     H      0.549140000000     0.139200000000     0.016000000000     0.0296902  
H475     H      0.532870000000     0.102890000000     0.472870000000     0.0344281  
H476     H      0.968780000000     0.165980000000     0.049470000000     0.0350062  
H477     H      0.968560000000     0.104140000000     0.051730000000     0.0373831  
H478     H      0.953020000000     0.122590000000     0.516620000000     0.0340422  
H479     H      0.542590000000     0.160860000000     0.479280000000     0.034365   
H480     H      0.497430000000     0.125960000000     0.465920000000     0.0381591  
H481     H      0.716050000000     0.024870000000     0.882260000000     0.033719   
H482     H      0.716410000000     0.461950000000     0.886320000000     0.0346784  
H483     H      0.758730000000     0.444260000000     0.851900000000     0.0384295  
H484     H      0.741370000000     0.046830000000     0.908730000000     0.039396   
H485     H      0.763140000000     0.046990000000     0.854940000000     0.0389474  
H486     H      0.788760000000     0.025260000000     0.881340000000     0.0342663  
H487     H      0.746050000000     0.444100000000     0.911350000000     0.0389689  
H488     H      0.788460000000     0.461770000000     0.877030000000     0.0346871  
H489     H      0.719350000000     0.475430000000     0.628770000000     0.0349817  
H490     H      0.719830000000     0.539560000000     0.624360000000     0.0345979  
H491     H      0.759410000000     0.056800000000     0.661860000000     0.0381268  
H492     H      0.746980000000     0.454110000000     0.604150000000     0.0384252  
H493     H      0.764570000000     0.454280000000     0.659440000000     0.0385022  
H494     H      0.791830000000     0.975960000000     0.634760000000     0.0362471  
H495     H      0.751410000000     0.056620000000     0.601370000000     0.0382     
H496     H      0.790990000000     0.039570000000     0.638950000000     0.0335707  
H497     H      0.540660000000     0.220780000000     0.875790000000     0.03424    
H498     H      0.978900000000     0.211710000000     0.874250000000     0.0353979  
H499     H      0.952960000000     0.248230000000     0.910700000000     0.0389948  
H500     H      0.556540000000     0.253840000000     0.853780000000     0.0384859  
H501     H      0.553930000000     0.263880000000     0.912180000000     0.0396068  
H502     H      0.531030000000     0.291840000000     0.889440000000     0.036355   
H503     H      0.955270000000     0.239240000000     0.851750000000     0.0387702  
H504     H      0.966930000000     0.282210000000     0.888830000000     0.0357042  
H505     H      0.033340000000     0.228650000000     0.628640000000     0.0350961  
H506     H      0.969220000000     0.232890000000     0.629150000000     0.0348146  
H507     H      0.953840000000     0.277640000000     0.662910000000     0.0383505  
H508     H      0.554150000000     0.256410000000     0.603710000000     0.038638   
H509     H      0.556100000000     0.271420000000     0.660950000000     0.0378886  
H510     H      0.537030000000     0.301090000000     0.636740000000     0.0331824  
H511     H      0.952000000000     0.263730000000     0.605020000000     0.0380122  
H512     H      0.475400000000     0.305050000000     0.638210000000     0.0339093  
H513     H      0.649300000000     0.003560000000     0.806370000000     0.0322119  
H514     H      0.642220000000     0.458490000000     0.759760000000     0.0373414  
H515     H      0.605170000000     0.475590000000     0.717610000000     0.033729   
H516     H      0.668420000000     0.039590000000     0.794210000000     0.0354647  
H517     H      0.607000000000     0.039840000000     0.796840000000     0.0352883  
H518     H      0.625010000000     0.054850000000     0.761280000000     0.0332111  
H519     H      0.663390000000     0.466520000000     0.723170000000     0.0334526  
H520     H      0.627730000000     0.511580000000     0.711240000000     0.0383225  
H521     H      0.879790000000     0.457050000000     0.765060000000     0.0369276  
H522     H      0.873720000000     0.505680000000     0.807130000000     0.0337154  
H523     H      0.914630000000     0.042550000000     0.793480000000     0.0365513  
H524     H      0.858340000000     0.461570000000     0.728030000000     0.0347192  
H525     H      0.916510000000     0.470160000000     0.721430000000     0.036011   
H526     H      0.893720000000     0.005190000000     0.711530000000     0.0304405  
H527     H      0.853660000000     0.040450000000     0.792880000000     0.0370858  
H528     H      0.895690000000     0.053090000000     0.756790000000     0.0330781  
H529     H      0.959960000000     0.378390000000     0.765450000000     0.0368942  
H530     H      0.503150000000     0.375500000000     0.717750000000     0.0350044  
H531     H      0.546260000000     0.412130000000     0.728960000000     0.035796   
H532     H      0.970110000000     0.356770000000     0.801210000000     0.0336074  
H533     H      0.978410000000     0.416810000000     0.805250000000     0.0349509  
H534     H      0.013660000000     0.393640000000     0.812810000000     0.034757   
H535     H      0.538360000000     0.352790000000     0.725400000000     0.0355549  
H536     H      0.556190000000     0.391070000000     0.764810000000     0.0353063  
H537     H      0.513060000000     0.125930000000     0.790040000000     0.0397415  
H538     H      0.961800000000     0.115300000000     0.743600000000     0.0321804  
H539     H      0.966270000000     0.164660000000     0.718320000000     0.0367831  
H540     H      0.549300000000     0.106780000000     0.777540000000     0.0326024  
H541     H      0.553320000000     0.164480000000     0.771000000000     0.0368476  
H542     H      0.554380000000     0.144940000000     0.732620000000     0.037365   
H543     H      0.978020000000     0.103140000000     0.706360000000     0.0366037  
H544     H      0.000370000000     0.152980000000     0.696100000000     0.0295045  
H545     H      0.613960000000     0.014110000000     0.552360000000     0.0317428  
H546     H      0.611570000000     0.054840000000     0.000490000000     0.0259452  
H547     H      0.654920000000     0.037910000000     0.968280000000     0.0368533  
H548     H      0.591280000000     0.477900000000     0.547760000000     0.0333173  
H549     H      0.649500000000     0.468400000000     0.542770000000     0.0327789  
H550     H      0.628350000000     0.458640000000     0.506580000000     0.0373232  
H551     H      0.593530000000     0.038400000000     0.965550000000     0.0332244  
H552     H      0.635630000000     0.501410000000     0.957840000000     0.0350361  
H553     H      0.883610000000     0.051670000000     0.502780000000     0.0329652  
H554     H      0.880860000000     0.504920000000     0.549980000000     0.0382173  
H555     H      0.844390000000     0.461480000000     0.535230000000     0.0344216  
H556     H      0.901220000000     0.038810000000     0.966200000000     0.0350137  
H557     H      0.839950000000     0.039080000000     0.969000000000     0.0383648  
H558     H      0.858540000000     0.003560000000     0.954700000000     0.033039   
H559     H      0.902790000000     0.469200000000     0.540690000000     0.0353981  
H560     H      0.865060000000     0.455710000000     0.997930000000     0.0444626  
H561     H      0.500890000000     0.373390000000     0.553310000000     0.0343488  
H562     H      0.953720000000     0.374840000000     0.508190000000     0.0376853  
H563     H      0.967400000000     0.411760000000     0.964800000000     0.0353547  
H564     H      0.536930000000     0.354130000000     0.541480000000     0.0361676  
H565     H      0.537300000000     0.414990000000     0.539100000000     0.0350505  
H566     H      0.548690000000     0.394880000000     0.003200000000     0.0323259  
H567     H      0.961990000000     0.352620000000     0.972290000000     0.0344856  
H568     H      0.003890000000     0.390480000000     0.957190000000     0.0358874  
H569     H      0.004650000000     0.146490000000     0.561280000000     0.0304443  
H570     H      0.549140000000     0.139200000000     0.516000000000     0.0367281  
H571     H      0.532870000000     0.102890000000     0.972870000000     0.0358373  
H572     H      0.968780000000     0.165980000000     0.549470000000     0.0353294  
H573     H      0.968560000000     0.104140000000     0.551730000000     0.0373317  
H574     H      0.953020000000     0.122590000000     0.016620000000     0.0326601  
H575     H      0.542590000000     0.160860000000     0.979280000000     0.0336657  
H576     H      0.497430000000     0.125960000000     0.965920000000     0.0395079  
H577     H      0.716050000000     0.524870000000     0.382260000000     0.0341646  
H578     H      0.716410000000     0.961950000000     0.386320000000     0.0354161  
H579     H      0.758730000000     0.944260000000     0.351900000000     0.0382449  
H580     H      0.741370000000     0.546830000000     0.408730000000     0.0381793  
H581     H      0.763140000000     0.546990000000     0.354940000000     0.0382506  
H582     H      0.788760000000     0.525260000000     0.381340000000     0.0347483  
H583     H      0.746050000000     0.944100000000     0.411350000000     0.0381373  
H584     H      0.788460000000     0.961770000000     0.377030000000     0.0353593  
H585     H      0.719350000000     0.975430000000     0.128770000000     0.0361572  
H586     H      0.719820000000     0.039560000000     0.124360000000     0.0337176  
H587     H      0.759410000000     0.556800000000     0.161860000000     0.0379359  
H588     H      0.746980000000     0.954110000000     0.104150000000     0.0379642  
H589     H      0.764570000000     0.954280000000     0.159450000000     0.0381635  
H590     H      0.791840000000     0.475960000000     0.134760000000     0.0348931  
H591     H      0.751410000000     0.556620000000     0.101370000000     0.0378576  
H592     H      0.790990000000     0.539570000000     0.138950000000     0.0342786  
H593     H      0.540660000000     0.720780000000     0.375790000000     0.0337794  
H594     H      0.978900000000     0.711710000000     0.374250000000     0.0349658  
H595     H      0.952960000000     0.748230000000     0.410700000000     0.0380994  
H596     H      0.556540000000     0.753840000000     0.353780000000     0.0381837  
H597     H      0.553930000000     0.763880000000     0.412180000000     0.0386988  
H598     H      0.531030000000     0.791840000000     0.389440000000     0.0359293  
H599     H      0.955270000000     0.739240000000     0.351750000000     0.038481   
H600     H      0.966930000000     0.782210000000     0.388830000000     0.0352682  
H601     H      0.033340000000     0.728650000000     0.128640000000     0.0350053  
H602     H      0.969220000000     0.732890000000     0.129150000000     0.0347141  
H603     H      0.953840000000     0.777640000000     0.162910000000     0.0382996  
H604     H      0.554150000000     0.756410000000     0.103710000000     0.03841    
H605     H      0.556100000000     0.771420000000     0.160950000000     0.0378079  
H606     H      0.537030000000     0.801090000000     0.136740000000     0.0332259  
H607     H      0.952000000000     0.763730000000     0.105020000000     0.0377954  
H608     H      0.475400000000     0.805050000000     0.138210000000     0.0339929  
H609     H      0.649300000000     0.503560000000     0.306370000000     0.0336726  
H610     H      0.642220000000     0.958490000000     0.259760000000     0.0383461  
H611     H      0.605170000000     0.975590000000     0.217610000000     0.0330103  
H612     H      0.668420000000     0.539590000000     0.294210000000     0.0353924  
H613     H      0.607000000000     0.539840000000     0.296840000000     0.0354998  
H614     H      0.625010000000     0.554840000000     0.261280000000     0.033315   
H615     H      0.663390000000     0.966520000000     0.223170000000     0.0346193  
H616     H      0.627730000000     0.011580000000     0.211240000000     0.0318026  
H617     H      0.879790000000     0.957050000000     0.265060000000     0.0388862  
H618     H      0.873720000000     0.005680000000     0.307130000000     0.0328435  
H619     H      0.914630000000     0.542550000000     0.293480000000     0.0370114  
H620     H      0.858340000000     0.961570000000     0.228030000000     0.0367752  
H621     H      0.916510000000     0.970160000000     0.221430000000     0.034965   
H622     H      0.893720000000     0.505190000000     0.211530000000     0.0375397  
H623     H      0.853660000000     0.540450000000     0.292880000000     0.0360382  
H624     H      0.895690000000     0.553090000000     0.256790000000     0.0336471  
H625     H      0.959960000000     0.878390000000     0.265450000000     0.0371439  
H626     H      0.503150000000     0.875500000000     0.217750000000     0.035347   
H627     H      0.546260000000     0.912130000000     0.228960000000     0.0364579  
H628     H      0.970110000000     0.856770000000     0.301210000000     0.033606   
H629     H      0.978410000000     0.916810000000     0.305250000000     0.0356949  
H630     H      0.013660000000     0.893640000000     0.312810000000     0.0350688  
H631     H      0.538360000000     0.852790000000     0.225400000000     0.0356571  
H632     H      0.556190000000     0.891070000000     0.264810000000     0.0356086  
H633     H      0.513060000000     0.625930000000     0.290040000000     0.0396675  
H634     H      0.961800000000     0.615300000000     0.243600000000     0.0321284  
H635     H      0.966270000000     0.664660000000     0.218320000000     0.0367267  
H636     H      0.549300000000     0.606780000000     0.277540000000     0.0325574  
H637     H      0.553320000000     0.664480000000     0.271000000000     0.0367092  
H638     H      0.554380000000     0.644940000000     0.232620000000     0.0373283  
H639     H      0.978020000000     0.603140000000     0.206360000000     0.0367296  
H640     H      0.000370000000     0.652980000000     0.196100000000     0.0295214  
H641     H      0.613960000000     0.514110000000     0.052360000000     0.0379904  
H642     H      0.611570000000     0.554840000000     0.500490000000     0.0334325  
H643     H      0.654920000000     0.537910000000     0.468280000000     0.0350847  
H644     H      0.591280000000     0.977900000000     0.047750000000     0.032614   
H645     H      0.649500000000     0.968400000000     0.042770000000     0.033919   
H646     H      0.628350000000     0.958640000000     0.006580000000     0.0367602  
H647     H      0.593530000000     0.538400000000     0.465550000000     0.0350064  
H648     H      0.635630000000     0.001410000000     0.457840000000     0.0321457  
H649     H      0.883610000000     0.551670000000     0.002780000000     0.0264254  
H650     H      0.880860000000     0.004920000000     0.049980000000     0.0304569  
H651     H      0.844390000000     0.961480000000     0.035230000000     0.0372718  
H652     H      0.901220000000     0.538810000000     0.466200000000     0.0368932  
H653     H      0.839950000000     0.539080000000     0.469000000000     0.0359288  
H654     H      0.858540000000     0.503560000000     0.454690000000     0.033403   
H655     H      0.902790000000     0.969200000000     0.040690000000     0.0332031  
H656     H      0.865060000000     0.955710000000     0.497930000000     0.0386662  
H657     H      0.500890000000     0.873390000000     0.053310000000     0.0344687  
H658     H      0.953720000000     0.874840000000     0.008190000000     0.0308353  
H659     H      0.967400000000     0.911760000000     0.464800000000     0.0348013  
H660     H      0.536930000000     0.854130000000     0.041470000000     0.0359946  
H661     H      0.537300000000     0.914990000000     0.039100000000     0.0357876  
H662     H      0.548690000000     0.894880000000     0.503200000000     0.0344379  
H663     H      0.961990000000     0.852620000000     0.472290000000     0.0354104  
H664     H      0.003890000000     0.890480000000     0.457190000000     0.0350621  
H665     H      0.004650000000     0.646490000000     0.061280000000     0.0302612  
H666     H      0.549140000000     0.639200000000     0.016000000000     0.0297039  
H667     H      0.532870000000     0.602890000000     0.472870000000     0.0344711  
H668     H      0.968780000000     0.665980000000     0.049470000000     0.0350088  
H669     H      0.968560000000     0.604140000000     0.051730000000     0.0375007  
H670     H      0.953020000000     0.622590000000     0.516620000000     0.0340496  
H671     H      0.542590000000     0.660860000000     0.479280000000     0.0343622  
H672     H      0.497430000000     0.625960000000     0.465920000000     0.0381872  
H673     H      0.716040000000     0.524870000000     0.882260000000     0.0345288  
H674     H      0.716410000000     0.961950000000     0.886320000000     0.0359517  
H675     H      0.758730000000     0.944260000000     0.851900000000     0.0385474  
H676     H      0.741360000000     0.546830000000     0.908730000000     0.038972   
H677     H      0.763140000000     0.546990000000     0.854940000000     0.0385485  
H678     H      0.788760000000     0.525260000000     0.881340000000     0.0351857  
H679     H      0.746050000000     0.944100000000     0.911350000000     0.0390835  
H680     H      0.788460000000     0.961770000000     0.877030000000     0.035806   
H681     H      0.719350000000     0.975430000000     0.628770000000     0.0361967  
H682     H      0.719830000000     0.039560000000     0.624360000000     0.0338453  
H683     H      0.759410000000     0.556800000000     0.661860000000     0.0380425  
H684     H      0.746980000000     0.954110000000     0.604150000000     0.0381612  
H685     H      0.764570000000     0.954280000000     0.659440000000     0.038276   
H686     H      0.791840000000     0.475960000000     0.634760000000     0.03499    
H687     H      0.751420000000     0.556620000000     0.601370000000     0.0381331  
H688     H      0.790990000000     0.539570000000     0.638950000000     0.0343768  
H689     H      0.540660000000     0.720780000000     0.875790000000     0.0342233  
H690     H      0.978900000000     0.711710000000     0.874250000000     0.0353849  
H691     H      0.952960000000     0.748230000000     0.910700000000     0.0390008  
H692     H      0.556540000000     0.753840000000     0.853780000000     0.0385029  
H693     H      0.553930000000     0.763880000000     0.912180000000     0.0396566  
H694     H      0.531030000000     0.791840000000     0.889440000000     0.0364839  
H695     H      0.955270000000     0.739240000000     0.851750000000     0.038767   
H696     H      0.966930000000     0.782210000000     0.888830000000     0.0357862  
H697     H      0.033340000000     0.728650000000     0.628640000000     0.0350744  
H698     H      0.969220000000     0.732890000000     0.629150000000     0.0347887  
H699     H      0.953840000000     0.777640000000     0.662910000000     0.0383982  
H700     H      0.554150000000     0.756410000000     0.603710000000     0.0386201  
H701     H      0.556100000000     0.771420000000     0.660950000000     0.0379225  
H702     H      0.537030000000     0.801090000000     0.636740000000     0.0333145  
H703     H      0.952000000000     0.763730000000     0.605020000000     0.0380104  
H704     H      0.475400000000     0.805050000000     0.638210000000     0.0340583  
H705     H      0.649300000000     0.503560000000     0.806370000000     0.0338574  
H706     H      0.642220000000     0.958490000000     0.759760000000     0.0384569  
H707     H      0.605170000000     0.975590000000     0.717610000000     0.0330156  
H708     H      0.668420000000     0.539590000000     0.794210000000     0.0355448  
H709     H      0.607000000000     0.539840000000     0.796840000000     0.0356311  
H710     H      0.625020000000     0.554840000000     0.761280000000     0.0333677  
H711     H      0.663390000000     0.966520000000     0.723170000000     0.034665   
H712     H      0.627730000000     0.011580000000     0.711240000000     0.0318094  
H713     H      0.879790000000     0.957050000000     0.765060000000     0.0389782  
H714     H      0.873720000000     0.005680000000     0.807130000000     0.0330051  
H715     H      0.914630000000     0.542550000000     0.793480000000     0.0371341  
H716     H      0.858340000000     0.961570000000     0.728030000000     0.0368238  
H717     H      0.916510000000     0.970160000000     0.721430000000     0.0349748  
H718     H      0.893720000000     0.505190000000     0.711530000000     0.0375442  
H719     H      0.853660000000     0.540450000000     0.792880000000     0.0361838  
H720     H      0.895680000000     0.553090000000     0.756790000000     0.0336958  
H721     H      0.959960000000     0.878390000000     0.765450000000     0.0372005  
H722     H      0.503160000000     0.875500000000     0.717750000000     0.0353553  
H723     H      0.546260000000     0.912130000000     0.728960000000     0.0364832  
H724     H      0.970110000000     0.856770000000     0.801210000000     0.0337763  
H725     H      0.978410000000     0.916810000000     0.805250000000     0.0358334  
H726     H      0.013660000000     0.893640000000     0.812810000000     0.0352826  
H727     H      0.538350000000     0.852790000000     0.725400000000     0.0357034  
H728     H      0.556180000000     0.891070000000     0.764810000000     0.0357437  
H729     H      0.513060000000     0.625930000000     0.790040000000     0.0397609  
H730     H      0.961800000000     0.615300000000     0.743600000000     0.0321889  
H731     H      0.966270000000     0.664660000000     0.718320000000     0.0367809  
H732     H      0.549310000000     0.606780000000     0.777540000000     0.0326047  
H733     H      0.553320000000     0.664480000000     0.771000000000     0.0368409  
H734     H      0.554380000000     0.644940000000     0.732620000000     0.0373888  
H735     H      0.978020000000     0.603140000000     0.706360000000     0.0367399  
H736     H      0.000370000000     0.652980000000     0.696100000000     0.029535   
H737     H      0.613950000000     0.514110000000     0.552360000000     0.0382217  
H738     H      0.611570000000     0.554840000000     0.000490000000     0.0260685  
H739     H      0.654920000000     0.537910000000     0.968280000000     0.0369831  
H740     H      0.591280000000     0.977900000000     0.547760000000     0.0326294  
H741     H      0.649500000000     0.968400000000     0.542770000000     0.0340641  
H742     H      0.628350000000     0.958640000000     0.506580000000     0.0384297  
H743     H      0.593530000000     0.538400000000     0.965550000000     0.0335664  
H744     H      0.635630000000     0.001410000000     0.957840000000     0.0333293  
H745     H      0.883600000000     0.551670000000     0.502780000000     0.033537   
H746     H      0.880860000000     0.004920000000     0.549980000000     0.031053   
H747     H      0.844390000000     0.961480000000     0.535230000000     0.0358838  
H748     H      0.901220000000     0.538810000000     0.966200000000     0.0355618  
H749     H      0.839950000000     0.539080000000     0.969000000000     0.0380445  
H750     H      0.858540000000     0.503560000000     0.954700000000     0.0342176  
H751     H      0.902800000000     0.969200000000     0.540690000000     0.0343987  
H752     H      0.865060000000     0.955710000000     0.997930000000     0.0461457  
H753     H      0.500890000000     0.873390000000     0.553310000000     0.0346616  
H754     H      0.953720000000     0.874840000000     0.508190000000     0.0379824  
H755     H      0.967400000000     0.911760000000     0.964800000000     0.0361615  
H756     H      0.536930000000     0.854130000000     0.541480000000     0.0362966  
H757     H      0.537300000000     0.914990000000     0.539100000000     0.0357808  
H758     H      0.548690000000     0.894880000000     0.003200000000     0.0328237  
H759     H      0.961990000000     0.852620000000     0.972290000000     0.0346211  
H760     H      0.003890000000     0.890480000000     0.957190000000     0.0363759  
H761     H      0.004650000000     0.646490000000     0.561280000000     0.0304834  
H762     H      0.549140000000     0.639200000000     0.516000000000     0.0367466  
H763     H      0.532870000000     0.602890000000     0.972870000000     0.035869   
H764     H      0.968770000000     0.665980000000     0.549470000000     0.0353201  
H765     H      0.968560000000     0.604140000000     0.551730000000     0.0374579  
H766     H      0.953020000000     0.622590000000     0.016620000000     0.0326625  
H767     H      0.542590000000     0.660860000000     0.979280000000     0.0336626  
H768     H      0.497420000000     0.625960000000     0.965920000000     0.0395346  
N1       N      0.262770000000     0.995510000000     0.350060000000    -0.17835    
N2       N      0.242380000000     0.995340000000     0.413450000000    -0.178412   
N3       N      0.263850000000     0.005710000000     0.164210000000    -0.181396   
N4       N      0.246880000000     0.005520000000     0.099240000000    -0.181389   
N5       N      0.502910000000     0.258830000000     0.414950000000    -0.178989   
N6       N      0.006120000000     0.245750000000     0.349190000000    -0.18       
N7       N      0.005080000000     0.274850000000     0.165350000000    -0.181214   
N8       N      0.502800000000     0.257630000000     0.101070000000    -0.180157   
N9       N      0.103130000000     0.510240000000     0.255220000000    -0.179402   
N10      N      0.168770000000     0.501210000000     0.260240000000    -0.179851   
N11      N      0.418480000000     0.508530000000     0.255300000000    -0.18017    
N12      N      0.353160000000     0.499600000000     0.261810000000    -0.180503   
N13      N      0.513670000000     0.417250000000     0.268280000000    -0.179726   
N14      N      0.502580000000     0.352110000000     0.262240000000    -0.179927   
N15      N      0.511010000000     0.168350000000     0.242530000000    -0.179206   
N16      N      0.509640000000     0.101270000000     0.246160000000    -0.179249   
N17      N      0.154930000000     0.501260000000     0.004100000000    -0.183236   
N18      N      0.089570000000     0.510580000000     0.008390000000    -0.183435   
N19      N      0.339200000000     0.498770000000     0.000690000000    -0.181884   
N20      N      0.405040000000     0.506520000000     0.005790000000    -0.183218   
N21      N      0.003500000000     0.416090000000     0.500590000000    -0.182084   
N22      N      0.997700000000     0.350580000000     0.508730000000    -0.179029   
N23      N      0.997330000000     0.100660000000     0.509620000000    -0.178023   
N24      N      0.006820000000     0.166170000000     0.515220000000    -0.182021   
N25      N      0.262770000000     0.995510000000     0.850060000000    -0.178316   
N26      N      0.242380000000     0.995340000000     0.913450000000    -0.177832   
N27      N      0.263850000000     0.005710000000     0.664210000000    -0.181384   
N28      N      0.246880000000     0.005520000000     0.599240000000    -0.181477   
N29      N      0.502910000000     0.258830000000     0.914950000000    -0.178446   
N30      N      0.006120000000     0.245750000000     0.849190000000    -0.179954   
N31      N      0.005080000000     0.274850000000     0.665350000000    -0.181215   
N32      N      0.502790000000     0.257630000000     0.601070000000    -0.180243   
N33      N      0.103130000000     0.510240000000     0.755220000000    -0.179452   
N34      N      0.168770000000     0.501210000000     0.760240000000    -0.17983    
N35      N      0.418480000000     0.508530000000     0.755300000000    -0.180163   
N36      N      0.353160000000     0.499600000000     0.761810000000    -0.180475   
N37      N      0.513670000000     0.417250000000     0.768280000000    -0.179668   
N38      N      0.502580000000     0.352110000000     0.762240000000    -0.179916   
N39      N      0.511010000000     0.168350000000     0.742530000000    -0.179185   
N40      N      0.509640000000     0.101270000000     0.746160000000    -0.179256   
N41      N      0.154930000000     0.501260000000     0.504100000000    -0.180475   
N42      N      0.089570000000     0.510580000000     0.508390000000    -0.180431   
N43      N      0.339200000000     0.498770000000     0.500680000000    -0.180073   
N44      N      0.405040000000     0.506520000000     0.505790000000    -0.179598   
N45      N      0.003500000000     0.416090000000     0.000590000000    -0.183672   
N46      N      0.997710000000     0.350580000000     0.008730000000    -0.183241   
N47      N      0.997330000000     0.100660000000     0.009620000000    -0.179598   
N48      N      0.006820000000     0.166170000000     0.015220000000    -0.186272   
N49      N      0.262770000000     0.495510000000     0.350060000000    -0.180581   
N50      N      0.242380000000     0.495340000000     0.413450000000    -0.180636   
N51      N      0.263850000000     0.505710000000     0.164210000000    -0.179346   
N52      N      0.246880000000     0.505520000000     0.099240000000    -0.179303   
N53      N      0.502910000000     0.758830000000     0.414950000000    -0.179047   
N54      N      0.006120000000     0.745750000000     0.349190000000    -0.180002   
N55      N      0.005080000000     0.774850000000     0.165350000000    -0.18119    
N56      N      0.502790000000     0.757630000000     0.101070000000    -0.180159   
N57      N      0.103130000000     0.010240000000     0.255220000000    -0.183307   
N58      N      0.168770000000     0.001210000000     0.260240000000    -0.18141    
N59      N      0.418480000000     0.008530000000     0.255300000000    -0.184583   
N60      N      0.353160000000     0.999600000000     0.261810000000    -0.17173    
N61      N      0.513670000000     0.917250000000     0.268280000000    -0.179126   
N62      N      0.502580000000     0.852110000000     0.262240000000    -0.179916   
N63      N      0.511010000000     0.668350000000     0.242530000000    -0.179214   
N64      N      0.509640000000     0.601260000000     0.246160000000    -0.17941    
N65      N      0.154930000000     0.001260000000     0.004100000000    -0.184797   
N66      N      0.089570000000     0.010580000000     0.008390000000    -0.187323   
N67      N      0.339200000000     0.998770000000     0.000690000000    -0.178854   
N68      N      0.405050000000     0.006520000000     0.005790000000    -0.18761    
N69      N      0.003500000000     0.916090000000     0.500590000000    -0.18152    
N70      N      0.997710000000     0.850580000000     0.508730000000    -0.179023   
N71      N      0.997330000000     0.600650000000     0.509620000000    -0.178202   
N72      N      0.006820000000     0.666170000000     0.515220000000    -0.181979   
N73      N      0.262770000000     0.495510000000     0.850060000000    -0.180541   
N74      N      0.242380000000     0.495340000000     0.913450000000    -0.180047   
N75      N      0.263850000000     0.505710000000     0.664210000000    -0.179339   
N76      N      0.246890000000     0.505520000000     0.599240000000    -0.179385   
N77      N      0.502910000000     0.758830000000     0.914950000000    -0.178371   
N78      N      0.006120000000     0.745750000000     0.849190000000    -0.179956   
N79      N      0.005080000000     0.774850000000     0.665350000000    -0.181189   
N80      N      0.502800000000     0.757630000000     0.601070000000    -0.180315   
N81      N      0.103130000000     0.010240000000     0.755220000000    -0.183355   
N82      N      0.168770000000     0.001210000000     0.760240000000    -0.18139    
N83      N      0.418480000000     0.008530000000     0.755300000000    -0.184579   
N84      N      0.353160000000     0.999600000000     0.761810000000    -0.171709   
N85      N      0.513670000000     0.917250000000     0.768280000000    -0.179101   
N86      N      0.502580000000     0.852110000000     0.762240000000    -0.179887   
N87      N      0.511010000000     0.668350000000     0.742530000000    -0.179193   
N88      N      0.509640000000     0.601260000000     0.746160000000    -0.179422   
N89      N      0.154930000000     0.001260000000     0.504100000000    -0.182048   
N90      N      0.089570000000     0.010580000000     0.508390000000    -0.184334   
N91      N      0.339200000000     0.998770000000     0.500680000000    -0.177036   
N92      N      0.405040000000     0.006520000000     0.505790000000    -0.183926   
N93      N      0.003500000000     0.916090000000     0.000590000000    -0.183109   
N94      N      0.997700000000     0.850580000000     0.008730000000    -0.183213   
N95      N      0.997330000000     0.600650000000     0.009620000000    -0.179796   
N96      N      0.006820000000     0.666170000000     0.015220000000    -0.186281   
N97      N      0.762770000000     0.995510000000     0.350060000000    -0.17835    
N98      N      0.742380000000     0.995340000000     0.413450000000    -0.178411   
N99      N      0.763850000000     0.005710000000     0.164210000000    -0.181392   
N100     N      0.746880000000     0.005520000000     0.099240000000    -0.181388   
N101     N      0.002910000000     0.258830000000     0.414950000000    -0.179821   
N102     N      0.506120000000     0.245750000000     0.349190000000    -0.179202   
N103     N      0.505080000000     0.274850000000     0.165350000000    -0.180444   
N104     N      0.002800000000     0.257630000000     0.101070000000    -0.18096    
N105     N      0.603130000000     0.510240000000     0.255220000000    -0.179425   
N106     N      0.668770000000     0.501210000000     0.260240000000    -0.17985    
N107     N      0.918480000000     0.508530000000     0.255300000000    -0.179956   
N108     N      0.853160000000     0.499600000000     0.261810000000    -0.180502   
N109     N      0.013670000000     0.417250000000     0.268280000000    -0.181253   
N110     N      0.002580000000     0.352110000000     0.262240000000    -0.180563   
N111     N      0.011010000000     0.168350000000     0.242530000000    -0.180329   
N112     N      0.009640000000     0.101270000000     0.246160000000    -0.18028    
N113     N      0.654930000000     0.501260000000     0.004100000000    -0.183243   
N114     N      0.589570000000     0.510580000000     0.008390000000    -0.183245   
N115     N      0.839200000000     0.498770000000     0.000690000000    -0.181881   
N116     N      0.905040000000     0.506520000000     0.005790000000    -0.183233   
N117     N      0.503500000000     0.416090000000     0.500590000000    -0.180621   
N118     N      0.497700000000     0.350580000000     0.508730000000    -0.180261   
N119     N      0.497330000000     0.100660000000     0.509620000000    -0.179975   
N120     N      0.506820000000     0.166170000000     0.515220000000    -0.180485   
N121     N      0.762770000000     0.995510000000     0.850060000000    -0.178312   
N122     N      0.742380000000     0.995340000000     0.913450000000    -0.17783    
N123     N      0.763850000000     0.005710000000     0.664210000000    -0.181376   
N124     N      0.746880000000     0.005520000000     0.599240000000    -0.181476   
N125     N      0.002910000000     0.258830000000     0.914950000000    -0.17922    
N126     N      0.506120000000     0.245750000000     0.849190000000    -0.179152   
N127     N      0.505080000000     0.274850000000     0.665350000000    -0.180436   
N128     N      0.002800000000     0.257630000000     0.601070000000    -0.181047   
N129     N      0.603130000000     0.510240000000     0.755220000000    -0.179557   
N130     N      0.668770000000     0.501210000000     0.760240000000    -0.17983    
N131     N      0.918480000000     0.508530000000     0.755300000000    -0.179951   
N132     N      0.853160000000     0.499600000000     0.761810000000    -0.18047    
N133     N      0.013670000000     0.417250000000     0.768280000000    -0.18122    
N134     N      0.002580000000     0.352110000000     0.762240000000    -0.180545   
N135     N      0.011010000000     0.168350000000     0.742530000000    -0.18031    
N136     N      0.009640000000     0.101270000000     0.746160000000    -0.180293   
N137     N      0.654930000000     0.501260000000     0.504100000000    -0.180476   
N138     N      0.589570000000     0.510580000000     0.508390000000    -0.180231   
N139     N      0.839200000000     0.498770000000     0.500680000000    -0.18007    
N140     N      0.905040000000     0.506520000000     0.505790000000    -0.179615   
N141     N      0.503500000000     0.416090000000     0.000590000000    -0.182239   
N142     N      0.497710000000     0.350580000000     0.008730000000    -0.184474   
N143     N      0.497330000000     0.100660000000     0.009620000000    -0.181552   
N144     N      0.506820000000     0.166170000000     0.015220000000    -0.184761   
N145     N      0.762770000000     0.495510000000     0.350060000000    -0.180579   
N146     N      0.742380000000     0.495340000000     0.413450000000    -0.180634   
N147     N      0.763850000000     0.505710000000     0.164210000000    -0.179344   
N148     N      0.746880000000     0.505520000000     0.099240000000    -0.179302   
N149     N      0.002910000000     0.758830000000     0.414950000000    -0.179817   
N150     N      0.506120000000     0.745750000000     0.349190000000    -0.179202   
N151     N      0.505080000000     0.774850000000     0.165350000000    -0.180415   
N152     N      0.002800000000     0.757630000000     0.101070000000    -0.18096    
N153     N      0.603130000000     0.010240000000     0.255220000000    -0.183339   
N154     N      0.668770000000     0.001210000000     0.260240000000    -0.181412   
N155     N      0.918480000000     0.008530000000     0.255300000000    -0.18436    
N156     N      0.853160000000     0.999600000000     0.261810000000    -0.171744   
N157     N      0.013670000000     0.917250000000     0.268280000000    -0.180673   
N158     N      0.002580000000     0.852110000000     0.262240000000    -0.180542   
N159     N      0.011010000000     0.668350000000     0.242530000000    -0.180337   
N160     N      0.009640000000     0.601260000000     0.246160000000    -0.180445   
N161     N      0.654930000000     0.001260000000     0.004100000000    -0.184808   
N162     N      0.589570000000     0.010580000000     0.008390000000    -0.18714    
N163     N      0.839200000000     0.998770000000     0.000690000000    -0.178858   
N164     N      0.905050000000     0.006520000000     0.005790000000    -0.187615   
N165     N      0.503500000000     0.916090000000     0.500590000000    -0.180056   
N166     N      0.497710000000     0.850580000000     0.508730000000    -0.180253   
N167     N      0.497330000000     0.600650000000     0.509620000000    -0.180154   
N168     N      0.506820000000     0.666170000000     0.515220000000    -0.18044    
N169     N      0.762770000000     0.495510000000     0.850060000000    -0.180535   
N170     N      0.742380000000     0.495340000000     0.913450000000    -0.18005    
N171     N      0.763850000000     0.505710000000     0.664210000000    -0.179334   
N172     N      0.746890000000     0.505520000000     0.599240000000    -0.179384   
N173     N      0.002910000000     0.758830000000     0.914950000000    -0.179207   
N174     N      0.506120000000     0.745750000000     0.849190000000    -0.179155   
N175     N      0.505080000000     0.774850000000     0.665350000000    -0.180411   
N176     N      0.002800000000     0.757630000000     0.601070000000    -0.181119   
N177     N      0.603130000000     0.010240000000     0.755220000000    -0.183385   
N178     N      0.668770000000     0.001210000000     0.760240000000    -0.181395   
N179     N      0.918480000000     0.008530000000     0.755300000000    -0.184353   
N180     N      0.853160000000     0.999600000000     0.761810000000    -0.171718   
N181     N      0.013670000000     0.917250000000     0.768280000000    -0.180652   
N182     N      0.002580000000     0.852110000000     0.762240000000    -0.180521   
N183     N      0.011010000000     0.668350000000     0.742530000000    -0.180318   
N184     N      0.009640000000     0.601260000000     0.746160000000    -0.180458   
N185     N      0.654930000000     0.001260000000     0.504100000000    -0.182053   
N186     N      0.589570000000     0.010580000000     0.508390000000    -0.184143   
N187     N      0.839200000000     0.998770000000     0.500680000000    -0.17704    
N188     N      0.905040000000     0.006520000000     0.505790000000    -0.183933   
N189     N      0.503500000000     0.916090000000     0.000590000000    -0.181656   
N190     N      0.497700000000     0.850580000000     0.008730000000    -0.184446   
N191     N      0.497330000000     0.600650000000     0.009620000000    -0.18175    
N192     N      0.506820000000     0.666170000000     0.015220000000    -0.184767   
O1       O      0.493320000000     0.051940000000     0.034460000000    -0.547796   
O2       O      0.001400000000     0.461690000000     0.030070000000    -0.556503   
O3       O      0.041780000000     0.009390000000     0.033590000000    -0.563005   
O4       O      0.452360000000     0.502570000000     0.031880000000    -0.558286   
O5       O      0.452500000000     0.011310000000     0.479350000000    -0.552991   
O6       O      0.042930000000     0.509490000000     0.480280000000    -0.555396   
O7       O      0.496480000000     0.464630000000     0.477100000000    -0.558924   
O8       O      0.999340000000     0.054470000000     0.481590000000    -0.563607   
O9       O      0.007240000000     0.050850000000     0.224660000000    -0.547791   
O10      O      0.514230000000     0.460970000000     0.235850000000    -0.555745   
O11      O      0.466040000000     0.002240000000     0.230260000000    -0.563099   
O12      O      0.055560000000     0.507890000000     0.229430000000    -0.559713   
O13      O      0.056000000000     0.011670000000     0.282600000000    -0.551156   
O14      O      0.465590000000     0.514720000000     0.282020000000    -0.553309   
O15      O      0.008650000000     0.467690000000     0.288390000000    -0.555758   
O16      O      0.512860000000     0.057110000000     0.277280000000    -0.560594   
O17      O      0.028910000000     0.257620000000     0.053210000000    -0.559502   
O18      O      0.028840000000     0.261130000000     0.463010000000    -0.558736   
O19      O      0.026550000000     0.304500000000     0.010460000000    -0.559391   
O20      O      0.030720000000     0.214210000000     0.506440000000    -0.556833   
O21      O      0.478080000000     0.212110000000     0.012390000000    -0.558185   
O22      O      0.473930000000     0.301950000000     0.504470000000    -0.558038   
O23      O      0.476410000000     0.253960000000     0.462790000000    -0.552923   
O24      O      0.476040000000     0.260040000000     0.053340000000    -0.553794   
O25      O      0.479060000000     0.267450000000     0.212750000000    -0.556911   
O26      O      0.479710000000     0.250370000000     0.301520000000    -0.555067   
O27      O      0.477790000000     0.303590000000     0.265610000000    -0.5472     
O28      O      0.481570000000     0.214290000000     0.247930000000    -0.547002   
O29      O      0.034230000000     0.216260000000     0.253200000000    -0.562686   
O30      O      0.030490000000     0.305860000000     0.260280000000    -0.562387   
O31      O      0.032230000000     0.256760000000     0.302260000000    -0.556158   
O32      O      0.031940000000     0.265400000000     0.212040000000    -0.558182   
O33      O      0.247680000000     0.476710000000     0.052920000000    -0.560315   
O34      O      0.245350000000     0.471060000000     0.462630000000    -0.555498   
O35      O      0.291740000000     0.473240000000     0.007220000000    -0.558212   
O36      O      0.201700000000     0.474480000000     0.509430000000    -0.558787   
O37      O      0.202330000000     0.027480000000     0.004250000000    -0.556995   
O38      O      0.292380000000     0.026250000000     0.502520000000    -0.561933   
O39      O      0.246200000000     0.024090000000     0.459500000000    -0.568841   
O40      O      0.248100000000     0.029720000000     0.049800000000    -0.550335   
O41      O      0.261350000000     0.476980000000     0.210500000000    -0.561681   
O42      O      0.260690000000     0.471350000000     0.300800000000    -0.55586    
O43      O      0.215750000000     0.474580000000     0.254750000000    -0.556943   
O44      O      0.305870000000     0.473790000000     0.255490000000    -0.558284   
O45      O      0.306250000000     0.026810000000     0.260190000000    -0.554744   
O46      O      0.216200000000     0.027580000000     0.259780000000    -0.554698   
O47      O      0.261190000000     0.024370000000     0.303920000000    -0.568264   
O48      O      0.261640000000     0.030010000000     0.213570000000    -0.55089    
O49      O      0.493330000000     0.051940000000     0.534460000000    -0.550409   
O50      O      0.001400000000     0.461690000000     0.530070000000    -0.559252   
O51      O      0.041780000000     0.009390000000     0.533590000000    -0.565622   
O52      O      0.452360000000     0.502570000000     0.531880000000    -0.560821   
O53      O      0.452500000000     0.011310000000     0.979350000000    -0.546826   
O54      O      0.042930000000     0.509490000000     0.980280000000    -0.549122   
O55      O      0.496480000000     0.464630000000     0.977090000000    -0.552303   
O56      O      0.999340000000     0.054470000000     0.981590000000    -0.557296   
O57      O      0.007240000000     0.050850000000     0.724660000000    -0.547805   
O58      O      0.514230000000     0.460970000000     0.735850000000    -0.555754   
O59      O      0.466040000000     0.002240000000     0.730260000000    -0.563112   
O60      O      0.055560000000     0.507890000000     0.729440000000    -0.559912   
O61      O      0.056000000000     0.011670000000     0.782600000000    -0.551169   
O62      O      0.465590000000     0.514720000000     0.782020000000    -0.55322    
O63      O      0.008650000000     0.467690000000     0.788390000000    -0.555694   
O64      O      0.512860000000     0.057110000000     0.777280000000    -0.560598   
O65      O      0.028910000000     0.257620000000     0.553210000000    -0.560844   
O66      O      0.028840000000     0.261130000000     0.963010000000    -0.55275    
O67      O      0.026550000000     0.304500000000     0.510460000000    -0.559135   
O68      O      0.030720000000     0.214210000000     0.006440000000    -0.558041   
O69      O      0.478080000000     0.212110000000     0.512390000000    -0.557862   
O70      O      0.473930000000     0.301950000000     0.004470000000    -0.55925    
O71      O      0.476410000000     0.253960000000     0.962790000000    -0.547066   
O72      O      0.476040000000     0.260040000000     0.553340000000    -0.555088   
O73      O      0.479060000000     0.267450000000     0.712750000000    -0.557057   
O74      O      0.479710000000     0.250370000000     0.801520000000    -0.554814   
O75      O      0.477790000000     0.303590000000     0.765610000000    -0.547112   
O76      O      0.481570000000     0.214290000000     0.747930000000    -0.546995   
O77      O      0.034230000000     0.216260000000     0.753200000000    -0.562643   
O78      O      0.030490000000     0.305860000000     0.760280000000    -0.562321   
O79      O      0.032230000000     0.256760000000     0.802260000000    -0.556031   
O80      O      0.031940000000     0.265400000000     0.712040000000    -0.558183   
O81      O      0.247680000000     0.476710000000     0.552920000000    -0.561691   
O82      O      0.245350000000     0.471060000000     0.962630000000    -0.549469   
O83      O      0.291740000000     0.473240000000     0.507220000000    -0.557833   
O84      O      0.201700000000     0.474480000000     0.009430000000    -0.558985   
O85      O      0.202330000000     0.027480000000     0.504250000000    -0.556054   
O86      O      0.292380000000     0.026250000000     0.002530000000    -0.562816   
O87      O      0.246200000000     0.024090000000     0.959500000000    -0.562935   
O88      O      0.248100000000     0.029720000000     0.549800000000    -0.551633   
O89      O      0.261350000000     0.476980000000     0.710500000000    -0.561671   
O90      O      0.260700000000     0.471350000000     0.800800000000    -0.55575    
O91      O      0.215750000000     0.474580000000     0.754760000000    -0.556928   
O92      O      0.305870000000     0.473790000000     0.755490000000    -0.558186   
O93      O      0.306250000000     0.026810000000     0.760190000000    -0.554683   
O94      O      0.216200000000     0.027580000000     0.759780000000    -0.554649   
O95      O      0.261190000000     0.024370000000     0.803920000000    -0.568162   
O96      O      0.261640000000     0.030010000000     0.713570000000    -0.550864   
O97      O      0.493330000000     0.551940000000     0.034460000000    -0.549071   
O98      O      0.001400000000     0.961690000000     0.030070000000    -0.551118   
O99      O      0.041780000000     0.509390000000     0.033590000000    -0.562125   
O100     O      0.452360000000     0.002570000000     0.031880000000    -0.559433   
O101     O      0.452500000000     0.511310000000     0.479350000000    -0.552726   
O102     O      0.042930000000     0.009490000000     0.480280000000    -0.555807   
O103     O      0.496480000000     0.964630000000     0.477100000000    -0.553292   
O104     O      0.999340000000     0.554470000000     0.481590000000    -0.564974   
O105     O      0.007240000000     0.550850000000     0.224660000000    -0.548966   
O106     O      0.514230000000     0.960970000000     0.235850000000    -0.550347   
O107     O      0.466040000000     0.502240000000     0.230260000000    -0.561919   
O108     O      0.055560000000     0.007890000000     0.229430000000    -0.560618   
O109     O      0.056000000000     0.511670000000     0.282600000000    -0.550758   
O110     O      0.465590000000     0.014720000000     0.282020000000    -0.55351    
O111     O      0.008650000000     0.967690000000     0.288390000000    -0.549972   
O112     O      0.512860000000     0.557110000000     0.277280000000    -0.561812   
O113     O      0.028910000000     0.757620000000     0.053210000000    -0.559502   
O114     O      0.028840000000     0.761130000000     0.463010000000    -0.558763   
O115     O      0.026550000000     0.804500000000     0.010460000000    -0.559342   
O116     O      0.030720000000     0.714210000000     0.506440000000    -0.556814   
O117     O      0.478080000000     0.712110000000     0.012390000000    -0.5582     
O118     O      0.473930000000     0.801950000000     0.504470000000    -0.558062   
O119     O      0.476410000000     0.753960000000     0.462790000000    -0.553051   
O120     O      0.476040000000     0.760040000000     0.053340000000    -0.553772   
O121     O      0.479060000000     0.767450000000     0.212750000000    -0.556897   
O122     O      0.479710000000     0.750370000000     0.301520000000    -0.555067   
O123     O      0.477790000000     0.803590000000     0.265610000000    -0.547155   
O124     O      0.481570000000     0.714290000000     0.247930000000    -0.547022   
O125     O      0.034230000000     0.716260000000     0.253200000000    -0.562707   
O126     O      0.030490000000     0.805860000000     0.260280000000    -0.562338   
O127     O      0.032230000000     0.756760000000     0.302260000000    -0.556148   
O128     O      0.031940000000     0.765400000000     0.212040000000    -0.558178   
O129     O      0.247680000000     0.976710000000     0.052920000000    -0.555194   
O130     O      0.245350000000     0.971060000000     0.462630000000    -0.557143   
O131     O      0.291740000000     0.973240000000     0.007220000000    -0.559894   
O132     O      0.201700000000     0.974480000000     0.509430000000    -0.553482   
O133     O      0.202330000000     0.527480000000     0.004250000000    -0.558863   
O134     O      0.292380000000     0.526250000000     0.502520000000    -0.556805   
O135     O      0.246200000000     0.524090000000     0.459500000000    -0.563782   
O136     O      0.248100000000     0.529720000000     0.049800000000    -0.552051   
O137     O      0.261350000000     0.976980000000     0.210500000000    -0.556216   
O138     O      0.260700000000     0.971350000000     0.300800000000    -0.557165   
O139     O      0.215750000000     0.974580000000     0.254750000000    -0.551322   
O140     O      0.305870000000     0.973790000000     0.255490000000    -0.551471   
O141     O      0.306250000000     0.526810000000     0.260190000000    -0.558127   
O142     O      0.216200000000     0.527580000000     0.259780000000    -0.556902   
O143     O      0.261190000000     0.524370000000     0.303920000000    -0.563533   
O144     O      0.261640000000     0.530010000000     0.213570000000    -0.552965   
O145     O      0.493330000000     0.551940000000     0.534460000000    -0.551646   
O146     O      0.001400000000     0.961690000000     0.530070000000    -0.553852   
O147     O      0.041780000000     0.509390000000     0.533590000000    -0.564756   
O148     O      0.452360000000     0.002570000000     0.531880000000    -0.561947   
O149     O      0.452500000000     0.511310000000     0.979350000000    -0.546502   
O150     O      0.042930000000     0.009490000000     0.980280000000    -0.549538   
O151     O      0.496480000000     0.964630000000     0.977090000000    -0.546711   
O152     O      0.999330000000     0.554470000000     0.981590000000    -0.558689   
O153     O      0.007240000000     0.550850000000     0.724660000000    -0.54898    
O154     O      0.514230000000     0.960970000000     0.735850000000    -0.550347   
O155     O      0.466040000000     0.502240000000     0.730260000000    -0.561936   
O156     O      0.055560000000     0.007890000000     0.729440000000    -0.560815   
O157     O      0.056000000000     0.511670000000     0.782600000000    -0.55077    
O158     O      0.465590000000     0.014720000000     0.782020000000    -0.55353    
O159     O      0.008650000000     0.967690000000     0.788390000000    -0.549917   
O160     O      0.512860000000     0.557110000000     0.777280000000    -0.561737   
O161     O      0.028910000000     0.757620000000     0.553210000000    -0.560957   
O162     O      0.028840000000     0.761130000000     0.963010000000    -0.55274    
O163     O      0.026550000000     0.804500000000     0.510460000000    -0.559115   
O164     O      0.030720000000     0.714210000000     0.006440000000    -0.558063   
O165     O      0.478070000000     0.712110000000     0.512390000000    -0.557737   
O166     O      0.473930000000     0.801950000000     0.004470000000    -0.559196   
O167     O      0.476410000000     0.753960000000     0.962790000000    -0.546991   
O168     O      0.476050000000     0.760040000000     0.553340000000    -0.555333   
O169     O      0.479060000000     0.767450000000     0.712750000000    -0.557044   
O170     O      0.479710000000     0.750370000000     0.801520000000    -0.554815   
O171     O      0.477790000000     0.803590000000     0.765610000000    -0.547066   
O172     O      0.481570000000     0.714290000000     0.747930000000    -0.547015   
O173     O      0.034230000000     0.716260000000     0.753200000000    -0.562663   
O174     O      0.030490000000     0.805860000000     0.760280000000    -0.562273   
O175     O      0.032230000000     0.756760000000     0.802260000000    -0.55602    
O176     O      0.031940000000     0.765400000000     0.712040000000    -0.55818    
O177     O      0.247680000000     0.976710000000     0.552920000000    -0.556557   
O178     O      0.245350000000     0.971060000000     0.962630000000    -0.55113    
O179     O      0.291740000000     0.973240000000     0.507220000000    -0.559518   
O180     O      0.201700000000     0.974480000000     0.009430000000    -0.553694   
O181     O      0.202330000000     0.527480000000     0.504250000000    -0.557926   
O182     O      0.292380000000     0.526250000000     0.002530000000    -0.557701   
O183     O      0.246200000000     0.524090000000     0.959500000000    -0.55788    
O184     O      0.248100000000     0.529720000000     0.549800000000    -0.553357   
O185     O      0.261340000000     0.976980000000     0.710500000000    -0.556246   
O186     O      0.260700000000     0.971350000000     0.800800000000    -0.557093   
O187     O      0.215760000000     0.974580000000     0.754760000000    -0.551583   
O188     O      0.305870000000     0.973790000000     0.755490000000    -0.551332   
O189     O      0.306240000000     0.526810000000     0.760190000000    -0.558213   
O190     O      0.216200000000     0.527580000000     0.759780000000    -0.556928   
O191     O      0.261190000000     0.524370000000     0.803920000000    -0.563487   
O192     O      0.261640000000     0.530010000000     0.713570000000    -0.552988   
O193     O      0.993320000000     0.051940000000     0.034460000000    -0.548039   
O194     O      0.501400000000     0.461690000000     0.030070000000    -0.55467    
O195     O      0.541780000000     0.009390000000     0.033590000000    -0.560615   
O196     O      0.952360000000     0.502570000000     0.031880000000    -0.558943   
O197     O      0.952500000000     0.011310000000     0.479350000000    -0.553354   
O198     O      0.542930000000     0.509490000000     0.480280000000    -0.553396   
O199     O      0.996480000000     0.464630000000     0.477100000000    -0.556573   
O200     O      0.499340000000     0.054470000000     0.481590000000    -0.564171   
O201     O      0.507240000000     0.050850000000     0.224660000000    -0.547366   
O202     O      0.014230000000     0.460970000000     0.235850000000    -0.555834   
O203     O      0.966040000000     0.002240000000     0.230260000000    -0.56087    
O204     O      0.555560000000     0.507890000000     0.229430000000    -0.56017    
O205     O      0.556000000000     0.011670000000     0.282600000000    -0.551622   
O206     O      0.965590000000     0.514720000000     0.282020000000    -0.551064   
O207     O      0.508650000000     0.467690000000     0.288390000000    -0.555353   
O208     O      0.012860000000     0.057110000000     0.277280000000    -0.560669   
O209     O      0.528910000000     0.257620000000     0.053210000000    -0.560384   
O210     O      0.528840000000     0.261130000000     0.463010000000    -0.559537   
O211     O      0.526550000000     0.304500000000     0.010460000000    -0.557446   
O212     O      0.530720000000     0.214210000000     0.506440000000    -0.557628   
O213     O      0.978080000000     0.212110000000     0.012390000000    -0.556051   
O214     O      0.973930000000     0.301950000000     0.504470000000    -0.558629   
O215     O      0.976410000000     0.253960000000     0.462790000000    -0.550722   
O216     O      0.976040000000     0.260040000000     0.053340000000    -0.551612   
O217     O      0.979060000000     0.267450000000     0.212750000000    -0.554566   
O218     O      0.979710000000     0.250370000000     0.301520000000    -0.552746   
O219     O      0.977790000000     0.303590000000     0.265610000000    -0.544844   
O220     O      0.981570000000     0.214290000000     0.247930000000    -0.544676   
O221     O      0.534230000000     0.216260000000     0.253200000000    -0.563645   
O222     O      0.530490000000     0.305860000000     0.260280000000    -0.563381   
O223     O      0.532230000000     0.256760000000     0.302260000000    -0.557096   
O224     O      0.531940000000     0.265400000000     0.212040000000    -0.559161   
O225     O      0.747680000000     0.476710000000     0.052920000000    -0.560313   
O226     O      0.745350000000     0.471060000000     0.462630000000    -0.555498   
O227     O      0.791740000000     0.473240000000     0.007220000000    -0.558205   
O228     O      0.701700000000     0.474480000000     0.509430000000    -0.558787   
O229     O      0.702330000000     0.027480000000     0.004250000000    -0.556993   
O230     O      0.792380000000     0.026250000000     0.502520000000    -0.561924   
O231     O      0.746200000000     0.024090000000     0.459500000000    -0.56884    
O232     O      0.748100000000     0.029720000000     0.049800000000    -0.550333   
O233     O      0.761350000000     0.476980000000     0.210500000000    -0.561717   
O234     O      0.760690000000     0.471350000000     0.300800000000    -0.555897   
O235     O      0.715760000000     0.474580000000     0.254750000000    -0.557079   
O236     O      0.805870000000     0.473790000000     0.255490000000    -0.558324   
O237     O      0.806250000000     0.026810000000     0.260190000000    -0.554733   
O238     O      0.716200000000     0.027580000000     0.259780000000    -0.554668   
O239     O      0.761190000000     0.024370000000     0.303920000000    -0.568254   
O240     O      0.761640000000     0.030010000000     0.213570000000    -0.550882   
O241     O      0.993330000000     0.051940000000     0.534460000000    -0.550647   
O242     O      0.501400000000     0.461690000000     0.530070000000    -0.557416   
O243     O      0.541780000000     0.009390000000     0.533590000000    -0.56323    
O244     O      0.952360000000     0.502570000000     0.531880000000    -0.561475   
O245     O      0.952500000000     0.011310000000     0.979350000000    -0.547199   
O246     O      0.542930000000     0.509490000000     0.980280000000    -0.547099   
O247     O      0.996480000000     0.464630000000     0.977090000000    -0.54998    
O248     O      0.499340000000     0.054470000000     0.981590000000    -0.557844   
O249     O      0.507240000000     0.050850000000     0.724660000000    -0.547372   
O250     O      0.014230000000     0.460970000000     0.735850000000    -0.555839   
O251     O      0.966040000000     0.002240000000     0.730260000000    -0.56088    
O252     O      0.555560000000     0.507890000000     0.729440000000    -0.560319   
O253     O      0.555990000000     0.011670000000     0.782600000000    -0.551763   
O254     O      0.965590000000     0.514720000000     0.782020000000    -0.551025   
O255     O      0.508650000000     0.467690000000     0.788390000000    -0.555248   
O256     O      0.012860000000     0.057110000000     0.777280000000    -0.560635   
O257     O      0.528910000000     0.257620000000     0.553210000000    -0.561729   
O258     O      0.528830000000     0.261130000000     0.963010000000    -0.553724   
O259     O      0.526550000000     0.304500000000     0.510460000000    -0.557173   
O260     O      0.530720000000     0.214210000000     0.006440000000    -0.558845   
O261     O      0.978080000000     0.212110000000     0.512390000000    -0.555723   
O262     O      0.973930000000     0.301950000000     0.004470000000    -0.559832   
O263     O      0.976410000000     0.253960000000     0.962790000000    -0.544797   
O264     O      0.976040000000     0.260040000000     0.553340000000    -0.552906   
O265     O      0.979060000000     0.267450000000     0.712750000000    -0.554706   
O266     O      0.979710000000     0.250370000000     0.801520000000    -0.552489   
O267     O      0.977790000000     0.303590000000     0.765610000000    -0.54475    
O268     O      0.981570000000     0.214290000000     0.747930000000    -0.544663   
O269     O      0.534230000000     0.216260000000     0.753200000000    -0.563604   
O270     O      0.530490000000     0.305860000000     0.760280000000    -0.563319   
O271     O      0.532230000000     0.256760000000     0.802260000000    -0.556972   
O272     O      0.531940000000     0.265400000000     0.712040000000    -0.559167   
O273     O      0.747680000000     0.476710000000     0.552920000000    -0.56169    
O274     O      0.745350000000     0.471060000000     0.962630000000    -0.549463   
O275     O      0.791740000000     0.473240000000     0.507220000000    -0.557826   
O276     O      0.701700000000     0.474480000000     0.009430000000    -0.558986   
O277     O      0.702330000000     0.027480000000     0.504250000000    -0.55605    
O278     O      0.792380000000     0.026250000000     0.002530000000    -0.562807   
O279     O      0.746200000000     0.024090000000     0.959500000000    -0.562929   
O280     O      0.748100000000     0.029720000000     0.549800000000    -0.551632   
O281     O      0.761350000000     0.476980000000     0.710500000000    -0.561714   
O282     O      0.760700000000     0.471350000000     0.800800000000    -0.555794   
O283     O      0.715760000000     0.474580000000     0.754760000000    -0.557102   
O284     O      0.805870000000     0.473790000000     0.755490000000    -0.558229   
O285     O      0.806250000000     0.026810000000     0.760190000000    -0.554676   
O286     O      0.716200000000     0.027580000000     0.759780000000    -0.554687   
O287     O      0.761190000000     0.024370000000     0.803920000000    -0.568165   
O288     O      0.761640000000     0.030010000000     0.713570000000    -0.550868   
O289     O      0.993330000000     0.551940000000     0.034460000000    -0.54931    
O290     O      0.501400000000     0.961690000000     0.030070000000    -0.549265   
O291     O      0.541780000000     0.509390000000     0.033590000000    -0.559729   
O292     O      0.952360000000     0.002570000000     0.031880000000    -0.560087   
O293     O      0.952500000000     0.511310000000     0.479350000000    -0.553087   
O294     O      0.542930000000     0.009490000000     0.480280000000    -0.553811   
O295     O      0.996480000000     0.964630000000     0.477100000000    -0.550973   
O296     O      0.499340000000     0.554470000000     0.481590000000    -0.565544   
O297     O      0.507240000000     0.550850000000     0.224660000000    -0.548538   
O298     O      0.014230000000     0.960970000000     0.235850000000    -0.550451   
O299     O      0.966040000000     0.502240000000     0.230260000000    -0.559691   
O300     O      0.555560000000     0.007890000000     0.229430000000    -0.56111    
O301     O      0.555990000000     0.511670000000     0.282600000000    -0.551353   
O302     O      0.965590000000     0.014720000000     0.282020000000    -0.551323   
O303     O      0.508650000000     0.967690000000     0.288390000000    -0.549507   
O304     O      0.012860000000     0.557110000000     0.277280000000    -0.561844   
O305     O      0.528910000000     0.757620000000     0.053210000000    -0.560376   
O306     O      0.528830000000     0.761130000000     0.463010000000    -0.559763   
O307     O      0.526550000000     0.804500000000     0.010460000000    -0.557392   
O308     O      0.530720000000     0.714210000000     0.506440000000    -0.557618   
O309     O      0.978080000000     0.712110000000     0.012390000000    -0.556071   
O310     O      0.973930000000     0.801950000000     0.504470000000    -0.558647   
O311     O      0.976410000000     0.753960000000     0.462790000000    -0.550771   
O312     O      0.976040000000     0.760040000000     0.053340000000    -0.551603   
O313     O      0.979060000000     0.767450000000     0.212750000000    -0.554555   
O314     O      0.979710000000     0.750370000000     0.301520000000    -0.552748   
O315     O      0.977790000000     0.803590000000     0.265610000000    -0.544802   
O316     O      0.981570000000     0.714290000000     0.247930000000    -0.544696   
O317     O      0.534230000000     0.716260000000     0.253200000000    -0.563666   
O318     O      0.530490000000     0.805860000000     0.260280000000    -0.563333   
O319     O      0.532230000000     0.756760000000     0.302260000000    -0.557086   
O320     O      0.531940000000     0.765400000000     0.212040000000    -0.559158   
O321     O      0.747680000000     0.976710000000     0.052920000000    -0.555193   
O322     O      0.745350000000     0.971060000000     0.462630000000    -0.557141   
O323     O      0.791740000000     0.973240000000     0.007220000000    -0.559885   
O324     O      0.701700000000     0.974480000000     0.509430000000    -0.553477   
O325     O      0.702330000000     0.527480000000     0.004250000000    -0.558863   
O326     O      0.792380000000     0.526250000000     0.502520000000    -0.556802   
O327     O      0.746200000000     0.524090000000     0.459500000000    -0.563782   
O328     O      0.748100000000     0.529720000000     0.049800000000    -0.552049   
O329     O      0.761350000000     0.976980000000     0.210500000000    -0.556255   
O330     O      0.760700000000     0.971350000000     0.300800000000    -0.557202   
O331     O      0.715760000000     0.974580000000     0.254750000000    -0.551458   
O332     O      0.805870000000     0.973790000000     0.255490000000    -0.551521   
O333     O      0.806250000000     0.526810000000     0.260190000000    -0.558112   
O334     O      0.716200000000     0.527580000000     0.259780000000    -0.55687    
O335     O      0.761190000000     0.524370000000     0.303920000000    -0.563525   
O336     O      0.761640000000     0.530010000000     0.213570000000    -0.552957   
O337     O      0.993330000000     0.551940000000     0.534460000000    -0.55188    
O338     O      0.501400000000     0.961690000000     0.530070000000    -0.551998   
O339     O      0.541780000000     0.509390000000     0.533590000000    -0.56236    
O340     O      0.952360000000     0.002570000000     0.531880000000    -0.562599   
O341     O      0.952500000000     0.511310000000     0.979350000000    -0.546873   
O342     O      0.542930000000     0.009490000000     0.980280000000    -0.547517   
O343     O      0.996480000000     0.964630000000     0.977090000000    -0.544423   
O344     O      0.499330000000     0.554470000000     0.981590000000    -0.559241   
O345     O      0.507240000000     0.550850000000     0.724660000000    -0.548556   
O346     O      0.014230000000     0.960970000000     0.735850000000    -0.550458   
O347     O      0.966040000000     0.502240000000     0.730260000000    -0.5597     
O348     O      0.555560000000     0.007890000000     0.729440000000    -0.561274   
O349     O      0.556000000000     0.511670000000     0.782600000000    -0.551155   
O350     O      0.965590000000     0.014720000000     0.782020000000    -0.551285   
O351     O      0.508650000000     0.967690000000     0.788390000000    -0.549489   
O352     O      0.012860000000     0.557110000000     0.777280000000    -0.561809   
O353     O      0.528910000000     0.757620000000     0.553210000000    -0.56185    
O354     O      0.528840000000     0.761130000000     0.963010000000    -0.553517   
O355     O      0.526550000000     0.804500000000     0.510460000000    -0.557164   
O356     O      0.530720000000     0.714210000000     0.006440000000    -0.558857   
O357     O      0.978070000000     0.712110000000     0.512390000000    -0.555594   
O358     O      0.973930000000     0.801950000000     0.004470000000    -0.55978    
O359     O      0.976410000000     0.753960000000     0.962790000000    -0.544801   
O360     O      0.976050000000     0.760040000000     0.553340000000    -0.553137   
O361     O      0.979060000000     0.767450000000     0.712750000000    -0.554695   
O362     O      0.979710000000     0.750370000000     0.801520000000    -0.552491   
O363     O      0.977790000000     0.803590000000     0.765610000000    -0.544707   
O364     O      0.981570000000     0.714290000000     0.747930000000    -0.544683   
O365     O      0.534230000000     0.716260000000     0.753200000000    -0.563625   
O366     O      0.530490000000     0.805860000000     0.760280000000    -0.56327    
O367     O      0.532230000000     0.756760000000     0.802260000000    -0.556961   
O368     O      0.531940000000     0.765400000000     0.712040000000    -0.559163   
O369     O      0.747680000000     0.976710000000     0.552920000000    -0.556557   
O370     O      0.745350000000     0.971060000000     0.962630000000    -0.551123   
O371     O      0.791740000000     0.973240000000     0.507220000000    -0.55951    
O372     O      0.701700000000     0.974480000000     0.009430000000    -0.553691   
O373     O      0.702330000000     0.527480000000     0.504250000000    -0.557922   
O374     O      0.792380000000     0.526250000000     0.002530000000    -0.557698   
O375     O      0.746200000000     0.524090000000     0.959500000000    -0.557875   
O376     O      0.748100000000     0.529720000000     0.549800000000    -0.553356   
O377     O      0.761340000000     0.976980000000     0.710500000000    -0.556206   
O378     O      0.760700000000     0.971350000000     0.800800000000    -0.557052   
O379     O      0.715750000000     0.974580000000     0.754760000000    -0.551453   
O380     O      0.805870000000     0.973790000000     0.755490000000    -0.551271   
O381     O      0.806240000000     0.526810000000     0.760190000000    -0.558142   
O382     O      0.716190000000     0.527580000000     0.759780000000    -0.556767   
O383     O      0.761190000000     0.524370000000     0.803920000000    -0.56344    
O384     O      0.761640000000     0.530010000000     0.713570000000    -0.55294    
V1       V      0.997070000000     0.006420000000     0.034700000000     1.3803     
V2       V      0.997760000000     0.509920000000     0.477370000000     1.39197    
V3       V      0.510750000000     0.005340000000     0.227860000000     1.38092    
V4       V      0.510750000000     0.512910000000     0.284780000000     1.38305    
V5       V      0.030930000000     0.259470000000     0.008160000000     1.38452    
V6       V      0.473920000000     0.256900000000     0.508120000000     1.38293    
V7       V      0.477330000000     0.258790000000     0.257080000000     1.36648    
V8       V      0.034350000000     0.261130000000     0.257090000000     1.40099    
V9       V      0.246660000000     0.471750000000     0.008150000000     1.3838     
V10      V      0.247360000000     0.029030000000     0.504150000000     1.38462    
V11      V      0.260830000000     0.472060000000     0.255280000000     1.39064    
V12      V      0.261270000000     0.029340000000     0.259230000000     1.38266    
V13      V      0.997070000000     0.006420000000     0.534700000000     1.39004    
V14      V      0.997760000000     0.509920000000     0.977370000000     1.39682    
V15      V      0.510750000000     0.005340000000     0.727860000000     1.38074    
V16      V      0.510750000000     0.512910000000     0.784780000000     1.38297    
V17      V      0.030930000000     0.259470000000     0.508160000000     1.39233    
V18      V      0.473920000000     0.256900000000     0.008120000000     1.37524    
V19      V      0.477330000000     0.258790000000     0.757070000000     1.36658    
V20      V      0.034350000000     0.261130000000     0.757090000000     1.4011     
V21      V      0.246660000000     0.471750000000     0.508150000000     1.39157    
V22      V      0.247360000000     0.029030000000     0.004150000000     1.37653    
V23      V      0.260830000000     0.472060000000     0.755280000000     1.39068    
V24      V      0.261270000000     0.029340000000     0.759230000000     1.38271    
V25      V      0.997070000000     0.506420000000     0.034700000000     1.38744    
V26      V      0.997760000000     0.009920000000     0.477370000000     1.38491    
V27      V      0.510750000000     0.505340000000     0.227860000000     1.38816    
V28      V      0.510750000000     0.012920000000     0.284780000000     1.37593    
V29      V      0.030930000000     0.759470000000     0.008160000000     1.3845     
V30      V      0.473910000000     0.756900000000     0.508120000000     1.38304    
V31      V      0.477330000000     0.758790000000     0.257080000000     1.36643    
V32      V      0.034350000000     0.761130000000     0.257090000000     1.40096    
V33      V      0.246660000000     0.971750000000     0.008150000000     1.39052    
V34      V      0.247360000000     0.529030000000     0.504150000000     1.39099    
V35      V      0.260830000000     0.972060000000     0.255280000000     1.39577    
V36      V      0.261270000000     0.529340000000     0.259230000000     1.39061    
V37      V      0.997070000000     0.506420000000     0.534700000000     1.3972     
V38      V      0.997760000000     0.009920000000     0.977370000000     1.38976    
V39      V      0.510750000000     0.505340000000     0.727860000000     1.38811    
V40      V      0.510750000000     0.012920000000     0.784780000000     1.37647    
V41      V      0.030930000000     0.759470000000     0.508160000000     1.39253    
V42      V      0.473920000000     0.756900000000     0.008120000000     1.37515    
V43      V      0.477330000000     0.758790000000     0.757070000000     1.36653    
V44      V      0.034350000000     0.761130000000     0.757090000000     1.40107    
V45      V      0.246660000000     0.971750000000     0.508150000000     1.39828    
V46      V      0.247360000000     0.529030000000     0.004150000000     1.38287    
V47      V      0.260820000000     0.972060000000     0.755280000000     1.39619    
V48      V      0.261270000000     0.529340000000     0.759230000000     1.39104    
V49      V      0.497070000000     0.006420000000     0.034700000000     1.37419    
V50      V      0.497760000000     0.509920000000     0.477370000000     1.38961    
V51      V      0.010750000000     0.005340000000     0.227860000000     1.37799    
V52      V      0.010750000000     0.512910000000     0.284780000000     1.37984    
V53      V      0.530930000000     0.259470000000     0.008160000000     1.38765    
V54      V      0.973920000000     0.256900000000     0.508120000000     1.38522    
V55      V      0.977330000000     0.258790000000     0.257080000000     1.36833    
V56      V      0.534350000000     0.261130000000     0.257090000000     1.40464    
V57      V      0.746660000000     0.471750000000     0.008150000000     1.38378    
V58      V      0.747360000000     0.029030000000     0.504150000000     1.3846     
V59      V      0.760830000000     0.472060000000     0.255280000000     1.39094    
V60      V      0.761270000000     0.029340000000     0.259230000000     1.38258    
V61      V      0.497070000000     0.006420000000     0.534700000000     1.38393    
V62      V      0.497760000000     0.509920000000     0.977370000000     1.39447    
V63      V      0.010750000000     0.005340000000     0.727860000000     1.37787    
V64      V      0.010750000000     0.512910000000     0.784780000000     1.38006    
V65      V      0.530930000000     0.259470000000     0.508160000000     1.39545    
V66      V      0.973920000000     0.256900000000     0.008120000000     1.37749    
V67      V      0.977330000000     0.258790000000     0.757070000000     1.36844    
V68      V      0.534350000000     0.261130000000     0.757090000000     1.40475    
V69      V      0.746660000000     0.471750000000     0.508150000000     1.39155    
V70      V      0.747360000000     0.029030000000     0.004150000000     1.3765     
V71      V      0.760830000000     0.472060000000     0.755280000000     1.39105    
V72      V      0.761270000000     0.029340000000     0.759230000000     1.38276    
V73      V      0.497070000000     0.506420000000     0.034700000000     1.38136    
V74      V      0.497760000000     0.009920000000     0.477370000000     1.38252    
V75      V      0.010750000000     0.505340000000     0.227860000000     1.38526    
V76      V      0.010750000000     0.012920000000     0.284780000000     1.37307    
V77      V      0.530930000000     0.759470000000     0.008160000000     1.38757    
V78      V      0.973910000000     0.756900000000     0.508120000000     1.38528    
V79      V      0.977330000000     0.758790000000     0.257080000000     1.36828    
V80      V      0.534350000000     0.761130000000     0.257090000000     1.40461    
V81      V      0.746660000000     0.971750000000     0.008150000000     1.39049    
V82      V      0.747360000000     0.529030000000     0.504150000000     1.39097    
V83      V      0.760830000000     0.972060000000     0.255280000000     1.39607    
V84      V      0.761270000000     0.529340000000     0.259230000000     1.39053    
V85      V      0.497070000000     0.506420000000     0.534700000000     1.39112    
V86      V      0.497760000000     0.009920000000     0.977370000000     1.38738    
V87      V      0.010750000000     0.505340000000     0.727860000000     1.38514    
V88      V      0.010750000000     0.012920000000     0.784780000000     1.37329    
V89      V      0.530930000000     0.759470000000     0.508160000000     1.3957     
V90      V      0.973920000000     0.756900000000     0.008120000000     1.37744    
V91      V      0.977330000000     0.758790000000     0.757070000000     1.36838    
V92      V      0.534350000000     0.761130000000     0.757090000000     1.40472    
V93      V      0.746660000000     0.971750000000     0.508150000000     1.39825    
V94      V      0.747360000000     0.529030000000     0.004150000000     1.38284    
V95      V      0.760820000000     0.972060000000     0.755280000000     1.39586    
V96      V      0.761270000000     0.529340000000     0.759230000000     1.39064    


