data_structure

_audit_creation_method RASPA-1.0
_audit_creation_date 2023-5-22
_audit_author_name 'Poobodin Mano'

_cell_length_a    41.7551
_cell_length_b    42.0272
_cell_length_c    31.2434
_cell_angle_alpha 90.0001
_cell_angle_beta  90
_cell_angle_gamma 120
_cell_volume      47482

_symmetry_cell_setting          triclinic
_symmetry_space_group_name_Hall 'P 1'
_symmetry_space_group_name_H-M  'P 1'
_symmetry_Int_Tables_number     1

_symmetry_equiv_pos_as_xyz 'x,y,z'

loop_
_atom_site_label
_atom_site_type_symbol
_atom_site_fract_x
_atom_site_fract_y
_atom_site_fract_z
_atom_site_charge
C1       C      0.520610000000     0.003670000000     0.257930000000     0.47612    
C2       C      0.518680000000     0.002580000000     0.419930000000     0.472821   
C3       C      0.460020000000     0.441960000000     0.335980000000     0.476773   
C4       C      0.080260000000     0.063290000000     0.336800000000     0.475485   
C5       C      0.494410000000     0.244500000000     0.248020000000     0.471635   
C6       C      0.494030000000     0.237590000000     0.409960000000     0.473039   
C7       C      0.433390000000     0.180150000000     0.326540000000     0.469462   
C8       C      0.054700000000     0.301470000000     0.332020000000     0.469862   
C9       C      0.237790000000     0.486440000000     0.280070000000     0.474824   
C10      C      0.249420000000     0.491780000000     0.441440000000     0.473573   
C11      C      0.304420000000     0.049960000000     0.354890000000     0.469272   
C12      C      0.183320000000     0.428740000000     0.365410000000     0.470303   
C13      C      0.276880000000     0.260850000000     0.265740000000     0.473478   
C14      C      0.268780000000     0.245290000000     0.426700000000     0.476075   
C15      C      0.333030000000     0.313090000000     0.354740000000     0.477736   
C16      C      0.212340000000     0.193360000000     0.341250000000     0.475935   
C17      C      0.446180000000     0.497110000000     0.997920000000     0.474583   
C18      C      0.066340000000     0.496760000000     0.018880000000     0.473528   
C19      C      0.014930000000     0.999770000000     0.928940000000     0.46546    
C20      C      0.995890000000     0.993530000000     0.089300000000     0.484518   
C21      C      0.072590000000     0.268970000000     0.987390000000     0.474398   
C22      C      0.451430000000     0.268000000000     0.005270000000     0.472737   
C23      C      0.516800000000     0.265300000000     0.076240000000     0.471999   
C24      C      0.507330000000     0.271620000000     0.914950000000     0.471128   
C25      C      0.319100000000     0.998790000000     0.027590000000     0.473347   
C26      C      0.197850000000     0.998950000000     0.021790000000     0.472709   
C27      C      0.263190000000     0.501770000000     0.945680000000     0.476193   
C28      C      0.256050000000     0.495910000000     0.107230000000     0.475547   
C29      C      0.198960000000     0.267720000000     0.016630000000     0.473687   
C30      C      0.320180000000     0.268050000000     0.004230000000     0.472521   
C31      C      0.261540000000     0.263840000000     0.091910000000     0.472583   
C32      C      0.257070000000     0.271700000000     0.930450000000     0.473909   
C33      C      0.012530000000     0.016050000000     0.756800000000     0.465314   
C34      C      0.019700000000     0.016830000000     0.594880000000     0.463444   
C35      C      0.515480000000     0.455830000000     0.677910000000     0.473735   
C36      C      0.515730000000     0.076460000000     0.674910000000     0.473291   
C37      C      0.515610000000     0.264410000000     0.741220000000     0.471355   
C38      C      0.513130000000     0.266420000000     0.579030000000     0.473033   
C39      C      0.014670000000     0.325860000000     0.661170000000     0.464779   
C40      C      0.014690000000     0.205350000000     0.656920000000     0.464726   
C41      C      0.275720000000     0.504240000000     0.772550000000     0.476349   
C42      C      0.271730000000     0.516190000000     0.611900000000     0.474914   
C43      C      0.273270000000     0.070270000000     0.700680000000     0.473364   
C44      C      0.273730000000     0.450550000000     0.685410000000     0.473294   
C45      C      0.271890000000     0.260350000000     0.760530000000     0.474355   
C46      C      0.275350000000     0.259580000000     0.598750000000     0.475725   
C47      C      0.273550000000     0.199290000000     0.681300000000     0.473183   
C48      C      0.273700000000     0.319880000000     0.675560000000     0.473979   
C49      C      0.308250000000     0.387130000000     0.663270000000    -0.00850526 
C50      C      0.239000000000     0.352680000000     0.663400000000    -0.00825491 
C51      C      0.308500000000     0.417350000000     0.690640000000    -0.0081783  
C52      C      0.238760000000     0.382800000000     0.690510000000    -0.00828013 
C53      C      0.238840000000     0.103780000000     0.710280000000    -0.0086029  
C54      C      0.308050000000     0.138000000000     0.710260000000    -0.00844371 
C55      C      0.238730000000     0.131210000000     0.678150000000    -0.00839785 
C56      C      0.308380000000     0.165810000000     0.678460000000    -0.00816432 
C57      C      0.049640000000     0.422060000000     0.686570000000    -0.00897645 
C58      C      0.480290000000     0.388070000000     0.686100000000    -0.00839172 
C59      C      0.049590000000     0.393770000000     0.655790000000    -0.00902549 
C60      C      0.480030000000     0.359380000000     0.655830000000    -0.0081434  
C61      C      0.480530000000     0.109450000000     0.679920000000    -0.00815246 
C62      C      0.050080000000     0.144410000000     0.680130000000    -0.00891854 
C63      C      0.480420000000     0.137540000000     0.648930000000    -0.00870613 
C64      C      0.049770000000     0.172400000000     0.649160000000    -0.00906297 
C65      C      0.240350000000     0.229870000000     0.827750000000    -0.00743667 
C66      C      0.301190000000     0.289390000000     0.829400000000    -0.00813121 
C67      C      0.225230000000     0.244670000000     0.862050000000    -0.00690632 
C68      C      0.285290000000     0.304480000000     0.862860000000    -0.00866008 
C69      C      0.233760000000     0.475580000000     0.876370000000    -0.00784009 
C70      C      0.291360000000     0.037220000000     0.878910000000    -0.00756995 
C71      C      0.248230000000     0.465790000000     0.836650000000    -0.00672236 
C72      C      0.306880000000     0.025720000000     0.841410000000    -0.00772688 
C73      C      0.353560000000     0.234190000000     0.990140000000    -0.00851256 
C74      C      0.388200000000     0.303150000000     0.994410000000    -0.00865    
C75      C      0.383600000000     0.233060000000     0.016990000000    -0.00842632 
C76      C      0.418330000000     0.301920000000     0.020930000000    -0.00822215 
C77      C      0.130280000000     0.233220000000     0.017400000000    -0.00840729 
C78      C      0.164990000000     0.302100000000     0.021340000000    -0.00795765 
C79      C      0.106690000000     0.234840000000     0.980880000000    -0.00837681 
C80      C      0.141250000000     0.303610000000     0.984970000000    -0.00868185 
C81      C      0.473760000000     0.244420000000     0.847330000000    -0.00790235 
C82      C      0.533060000000     0.305030000000     0.846900000000    -0.00864271 
C83      C      0.987080000000     0.231820000000     0.808730000000    -0.00397156 
C84      C      0.047410000000     0.291720000000     0.809690000000    -0.00914176 
C85      C      0.387780000000     0.032740000000     0.028930000000    -0.00846288 
C86      C      0.353440000000     0.463200000000     0.029330000000    -0.00795666 
C87      C      0.412350000000     0.032420000000     0.992730000000    -0.0080532  
C88      C      0.377650000000     0.463250000000     0.992540000000    -0.00843689 
C89      C      0.164150000000     0.033180000000     0.013840000000    -0.00829114 
C90      C      0.131650000000     0.463900000000     0.008190000000    -0.00863045 
C91      C      0.132140000000     0.030860000000     0.040070000000    -0.00821104 
C92      C      0.099080000000     0.462220000000     0.032460000000    -0.00790397 
C93      C      0.038770000000     0.046120000000     0.826260000000    -0.00850613 
C94      C      0.477990000000     0.486080000000     0.821830000000    -0.00801819 
C95      C      0.051030000000     0.031790000000     0.864260000000    -0.00797313 
C96      C      0.492040000000     0.470500000000     0.856650000000    -0.00819455 
C97      C      0.233980000000     0.237250000000     0.493560000000    -0.00688569 
C98      C      0.293480000000     0.235910000000     0.494430000000    -0.00803008 
C99      C      0.247410000000     0.263920000000     0.531120000000    -0.00726519 
C100     C      0.307800000000     0.263850000000     0.531070000000    -0.00776729 
C101     C      0.282900000000     0.298610000000     0.202250000000    -0.00789995 
C102     C      0.284640000000     0.239970000000     0.194540000000    -0.00810458 
C103     C      0.258540000000     0.288890000000     0.162320000000    -0.00832749 
C104     C      0.257720000000     0.228630000000     0.156850000000    -0.00783194 
C105     C      0.239680000000     0.020660000000     0.546690000000    -0.00685417 
C106     C      0.300050000000     0.521360000000     0.540860000000    -0.00825021 
C107     C      0.222890000000     0.991890000000     0.511280000000    -0.00817709 
C108     C      0.282870000000     0.491350000000     0.506530000000    -0.00794667 
C109     C      0.230290000000     0.452400000000     0.212860000000    -0.00701218 
C110     C      0.229820000000     0.012250000000     0.211540000000    -0.00752976 
C111     C      0.256150000000     0.464980000000     0.174210000000    -0.00811113 
C112     C      0.258080000000     0.026410000000     0.175120000000    -0.00750315 
C113     C      0.481550000000     0.267250000000     0.512480000000    -0.00729036 
C114     C      0.041720000000     0.267150000000     0.509340000000    -0.00824607 
C115     C      0.464980000000     0.236480000000     0.479360000000    -0.00712573 
C116     C      0.024650000000     0.235460000000     0.476890000000    -0.0137673  
C117     C      0.338150000000     0.118170000000     0.356990000000    -0.00971053 
C118     C      0.373100000000     0.083900000000     0.352830000000    -0.00925258 
C119     C      0.364650000000     0.145950000000     0.324130000000    -0.00811387 
C120     C      0.399680000000     0.112020000000     0.320300000000    -0.00868862 
C121     C      0.149510000000     0.360410000000     0.366700000000    -0.00843827 
C122     C      0.114650000000     0.394480000000     0.370380000000    -0.0085046  
C123     C      0.123430000000     0.335620000000     0.331440000000    -0.00930407 
C124     C      0.088310000000     0.369700000000     0.335340000000    -0.00915737 
C125     C      0.021260000000     0.233260000000     0.140530000000    -0.0149444  
C126     C      0.521700000000     0.293040000000     0.147490000000    -0.00841995 
C127     C      0.993740000000     0.217250000000     0.177590000000    -0.000317528
C128     C      0.492100000000     0.276270000000     0.182490000000    -0.00826399 
C129     C      0.493390000000     0.020380000000     0.525560000000    -0.00751692 
C130     C      0.054920000000     0.022900000000     0.528710000000    -0.00813368 
C131     C      0.482770000000     0.494650000000     0.484720000000    -0.0078109  
C132     C      0.043400000000     0.495730000000     0.489170000000    -0.00866182 
C133     C      0.391590000000     0.407830000000     0.332540000000    -0.00822633 
C134     C      0.427200000000     0.374180000000     0.328730000000    -0.00830622 
C135     C      0.366090000000     0.380480000000     0.366120000000    -0.00773027 
C136     C      0.401330000000     0.346710000000     0.361940000000    -0.00722144 
C137     C      0.147400000000     0.095850000000     0.321930000000    -0.00762312 
C138     C      0.113030000000     0.130530000000     0.325440000000    -0.00755245 
C139     C      0.178960000000     0.125810000000     0.347920000000    -0.00833784 
C140     C      0.144620000000     0.160890000000     0.351060000000    -0.00822102 
C141     C      0.023040000000     0.035700000000     0.190720000000    -0.0143696  
C142     C      0.522300000000     0.474850000000     0.188380000000    -0.00802365 
C143     C      0.992330000000     0.021810000000     0.157300000000     0.00152071 
C144     C      0.490720000000     0.460610000000     0.155710000000    -0.00859955 
C145     C      0.521490000000     0.503410000000     0.257140000000     0.47507    
C146     C      0.518550000000     0.501110000000     0.419200000000     0.472041   
C147     C      0.459620000000     0.942670000000     0.337400000000     0.476467   
C148     C      0.080700000000     0.562530000000     0.336770000000     0.475488   
C149     C      0.494090000000     0.744310000000     0.247760000000     0.471643   
C150     C      0.494000000000     0.737810000000     0.409720000000     0.473048   
C151     C      0.433200000000     0.680140000000     0.326540000000     0.469484   
C152     C      0.054520000000     0.801470000000     0.331500000000     0.469841   
C153     C      0.237780000000     0.986650000000     0.279220000000     0.473454   
C154     C      0.249350000000     0.991420000000     0.440700000000     0.47257    
C155     C      0.304360000000     0.550010000000     0.355490000000     0.469214   
C156     C      0.183300000000     0.928750000000     0.364450000000     0.470267   
C157     C      0.276810000000     0.760740000000     0.265990000000     0.473282   
C158     C      0.268730000000     0.745120000000     0.426930000000     0.476036   
C159     C      0.332720000000     0.813200000000     0.355100000000     0.47697    
C160     C      0.212520000000     0.692990000000     0.341460000000     0.475786   
C161     C      0.445590000000     0.997380000000     0.998570000000     0.473778   
C162     C      0.065480000000     0.996750000000     0.021340000000     0.473103   
C163     C      0.014980000000     0.499490000000     0.927240000000     0.46553    
C164     C      0.997400000000     0.493660000000     0.087910000000     0.484336   
C165     C      0.072530000000     0.768750000000     0.987280000000     0.474441   
C166     C      0.451370000000     0.767800000000     0.004960000000     0.472701   
C167     C      0.516640000000     0.765070000000     0.076020000000     0.471574   
C168     C      0.507350000000     0.771410000000     0.914700000000     0.471009   
C169     C      0.320060000000     0.498250000000     0.029050000000     0.474555   
C170     C      0.198940000000     0.498540000000     0.022190000000     0.473409   
C171     C      0.261720000000     0.002360000000     0.944660000000     0.47578    
C172     C      0.255590000000     0.996430000000     0.106360000000     0.473885   
C173     C      0.198850000000     0.767540000000     0.016870000000     0.473591   
C174     C      0.320080000000     0.767890000000     0.004410000000     0.472727   
C175     C      0.261460000000     0.763670000000     0.092150000000     0.472437   
C176     C      0.256960000000     0.771540000000     0.930680000000     0.473893   
C177     C      0.011830000000     0.515930000000     0.755510000000     0.464369   
C178     C      0.019450000000     0.516550000000     0.593550000000     0.463008   
C179     C      0.515980000000     0.956060000000     0.678970000000     0.474023   
C180     C      0.515330000000     0.576270000000     0.673410000000     0.473667   
C181     C      0.515700000000     0.764340000000     0.740930000000     0.47101    
C182     C      0.513260000000     0.766790000000     0.578760000000     0.472971   
C183     C      0.014940000000     0.826100000000     0.661210000000     0.464638   
C184     C      0.014620000000     0.705430000000     0.656290000000     0.464469   
C185     C      0.274990000000     0.003970000000     0.772000000000     0.476229   
C186     C      0.271310000000     0.015760000000     0.611190000000     0.473777   
C187     C      0.273830000000     0.570580000000     0.701490000000     0.473526   
C188     C      0.273180000000     0.950210000000     0.685000000000     0.473087   
C189     C      0.271810000000     0.760290000000     0.760750000000     0.474602   
C190     C      0.275250000000     0.759400000000     0.598980000000     0.475987   
C191     C      0.273690000000     0.699290000000     0.681640000000     0.473326   
C192     C      0.273410000000     0.819650000000     0.675670000000     0.473711   
C193     C      0.307800000000     0.886860000000     0.663200000000    -0.00847061 
C194     C      0.238550000000     0.852280000000     0.663330000000    -0.00828678 
C195     C      0.307980000000     0.917070000000     0.690490000000    -0.00819202 
C196     C      0.238240000000     0.882450000000     0.690260000000    -0.00830683 
C197     C      0.239330000000     0.604020000000     0.711190000000    -0.00856492 
C198     C      0.308540000000     0.638340000000     0.710860000000    -0.00856984 
C199     C      0.239040000000     0.631210000000     0.678840000000    -0.00829875 
C200     C      0.308690000000     0.665970000000     0.678900000000    -0.00811422 
C201     C      0.050150000000     0.922240000000     0.687150000000    -0.00893373 
C202     C      0.480800000000     0.888280000000     0.686980000000    -0.00832932 
C203     C      0.049980000000     0.894030000000     0.656130000000    -0.00909219 
C204     C      0.480410000000     0.859750000000     0.656370000000    -0.00818362 
C205     C      0.480190000000     0.609320000000     0.678420000000    -0.00810991 
C206     C      0.049750000000     0.644190000000     0.678880000000    -0.00889428 
C207     C      0.480230000000     0.637670000000     0.647730000000    -0.00879759 
C208     C      0.049570000000     0.672390000000     0.648160000000    -0.00904127 
C209     C      0.240320000000     0.729750000000     0.827970000000    -0.00746604 
C210     C      0.301080000000     0.789360000000     0.829620000000    -0.00818719 
C211     C      0.225140000000     0.744490000000     0.862270000000    -0.00694194 
C212     C      0.285120000000     0.804370000000     0.863110000000    -0.00858898 
C213     C      0.232240000000     0.975930000000     0.875270000000    -0.00813423 
C214     C      0.293050000000     0.536730000000     0.880150000000    -0.00708381 
C215     C      0.247230000000     0.965740000000     0.836290000000    -0.00678309 
C216     C      0.308000000000     0.525610000000     0.841770000000    -0.00753806 
C217     C      0.353430000000     0.734030000000     0.990090000000    -0.00858171 
C218     C      0.388080000000     0.802980000000     0.994440000000    -0.00845496 
C219     C      0.383550000000     0.732880000000     0.016750000000    -0.00834863 
C220     C      0.418300000000     0.801740000000     0.020750000000    -0.0084252  
C221     C      0.130180000000     0.733020000000     0.017580000000    -0.00841327 
C222     C      0.164870000000     0.801900000000     0.021470000000    -0.00801697 
C223     C      0.106640000000     0.734620000000     0.980970000000    -0.00835621 
C224     C      0.141190000000     0.803380000000     0.985000000000    -0.0085514  
C225     C      0.473830000000     0.744250000000     0.847050000000    -0.00790595 
C226     C      0.533180000000     0.804820000000     0.846660000000    -0.00859008 
C227     C      0.987120000000     0.731670000000     0.808390000000    -0.00399356 
C228     C      0.047500000000     0.791510000000     0.809440000000    -0.00910573 
C229     C      0.388750000000     0.532210000000     0.030050000000    -0.0082838  
C230     C      0.352400000000     0.963670000000     0.028290000000    -0.00808274 
C231     C      0.412690000000     0.531980000000     0.993090000000    -0.00803867 
C232     C      0.377120000000     0.963670000000     0.992140000000    -0.00857871 
C233     C      0.165610000000     0.532920000000     0.013040000000    -0.00819874 
C234     C      0.130340000000     0.964150000000     0.008530000000    -0.00868943 
C235     C      0.132940000000     0.530930000000     0.037490000000    -0.00815824 
C236     C      0.098380000000     0.962210000000     0.034460000000    -0.00812724 
C237     C      0.038110000000     0.546090000000     0.824970000000    -0.0085576  
C238     C      0.478680000000     0.986080000000     0.823020000000    -0.00771684 
C239     C      0.050750000000     0.531490000000     0.862340000000    -0.00803292 
C240     C      0.492470000000     0.970730000000     0.858320000000    -0.00800866 
C241     C      0.233870000000     0.736900000000     0.493800000000    -0.00698651 
C242     C      0.293530000000     0.735860000000     0.494650000000    -0.00802229 
C243     C      0.247210000000     0.763570000000     0.531350000000    -0.00713249 
C244     C      0.307750000000     0.763790000000     0.531300000000    -0.00780215 
C245     C      0.282660000000     0.798440000000     0.202490000000    -0.00787829 
C246     C      0.284690000000     0.739950000000     0.194790000000    -0.00818443 
C247     C      0.258320000000     0.788650000000     0.162540000000    -0.00842414 
C248     C      0.257770000000     0.728520000000     0.157080000000    -0.00774154 
C249     C      0.240100000000     0.521280000000     0.547530000000    -0.00685259 
C250     C      0.299680000000     0.020780000000     0.540170000000    -0.00799058 
C251     C      0.223260000000     0.492610000000     0.512040000000    -0.00762974 
C252     C      0.282520000000     0.990650000000     0.505940000000    -0.00858143 
C253     C      0.230180000000     0.952690000000     0.211830000000    -0.00725037 
C254     C      0.229850000000     0.511900000000     0.212300000000    -0.00767019 
C255     C      0.256120000000     0.965380000000     0.173200000000    -0.00820904 
C256     C      0.257900000000     0.525920000000     0.175690000000    -0.00708027 
C257     C      0.481690000000     0.767700000000     0.512210000000    -0.00729084 
C258     C      0.041830000000     0.767550000000     0.509040000000    -0.00825094 
C259     C      0.465060000000     0.736880000000     0.479150000000    -0.00722785 
C260     C      0.024720000000     0.735820000000     0.476640000000    -0.0137338  
C261     C      0.338030000000     0.618230000000     0.357300000000    -0.00973886 
C262     C      0.373020000000     0.584010000000     0.353290000000    -0.00902554 
C263     C      0.364460000000     0.645920000000     0.324310000000    -0.00809424 
C264     C      0.399510000000     0.612000000000     0.320610000000    -0.00876159 
C265     C      0.149450000000     0.860420000000     0.365730000000    -0.00856368 
C266     C      0.114640000000     0.894550000000     0.369530000000    -0.00839018 
C267     C      0.123250000000     0.835600000000     0.330580000000    -0.00928283 
C268     C      0.088170000000     0.869710000000     0.334610000000    -0.00922323 
C269     C      0.021000000000     0.733010000000     0.140340000000    -0.014952   
C270     C      0.521420000000     0.792790000000     0.147240000000    -0.00842906 
C271     C      0.993430000000     0.717000000000     0.177370000000    -0.000369774
C272     C      0.491770000000     0.776010000000     0.182170000000    -0.00822336 
C273     C      0.493190000000     0.519620000000     0.523900000000    -0.00814721 
C274     C      0.054660000000     0.522120000000     0.527450000000    -0.00885914 
C275     C      0.483350000000     0.996370000000     0.485580000000    -0.00888552 
C276     C      0.043920000000     0.997390000000     0.489640000000    -0.00919758 
C277     C      0.391180000000     0.908370000000     0.333990000000    -0.00816359 
C278     C      0.427020000000     0.874940000000     0.329980000000    -0.00839999 
C279     C      0.365390000000     0.880530000000     0.367010000000    -0.00778825 
C280     C      0.400970000000     0.847120000000     0.362760000000    -0.00720123 
C281     C      0.147940000000     0.595270000000     0.322450000000    -0.00754119 
C282     C      0.113360000000     0.629770000000     0.325670000000    -0.0075572  
C283     C      0.179480000000     0.625440000000     0.348300000000    -0.00857359 
C284     C      0.144820000000     0.660190000000     0.351340000000    -0.00810834 
C285     C      0.024160000000     0.535700000000     0.190000000000    -0.0145345  
C286     C      0.520700000000     0.974620000000     0.189260000000    -0.00803338 
C287     C      0.993900000000     0.521900000000     0.156000000000     0.000955697
C288     C      0.488730000000     0.960380000000     0.157130000000    -0.00832476 
C289     C      0.020610000000     0.003670000000     0.257930000000     0.474498   
C290     C      0.018680000000     0.002580000000     0.419930000000     0.471754   
C291     C      0.960020000000     0.441960000000     0.335980000000     0.475728   
C292     C      0.580260000000     0.063290000000     0.336800000000     0.476092   
C293     C      0.994410000000     0.244500000000     0.248020000000     0.480906   
C294     C      0.994030000000     0.237590000000     0.409960000000     0.481739   
C295     C      0.933390000000     0.180150000000     0.326540000000     0.469179   
C296     C      0.554700000000     0.301470000000     0.332020000000     0.469522   
C297     C      0.737790000000     0.486440000000     0.280070000000     0.474836   
C298     C      0.749420000000     0.491780000000     0.441440000000     0.473573   
C299     C      0.804420000000     0.049960000000     0.354890000000     0.469283   
C300     C      0.683320000000     0.428740000000     0.365410000000     0.470317   
C301     C      0.776880000000     0.260850000000     0.265740000000     0.473487   
C302     C      0.768780000000     0.245290000000     0.426700000000     0.47607    
C303     C      0.833030000000     0.313090000000     0.354740000000     0.477757   
C304     C      0.712340000000     0.193360000000     0.341250000000     0.475925   
C305     C      0.946180000000     0.497110000000     0.997920000000     0.474339   
C306     C      0.566350000000     0.496760000000     0.018880000000     0.473267   
C307     C      0.514930000000     0.999770000000     0.928940000000     0.473854   
C308     C      0.495890000000     0.993530000000     0.089300000000     0.475256   
C309     C      0.572590000000     0.268970000000     0.987390000000     0.473681   
C310     C      0.951430000000     0.268000000000     0.005270000000     0.472997   
C311     C      0.016800000000     0.265300000000     0.076240000000     0.471718   
C312     C      0.007330000000     0.271620000000     0.914950000000     0.462556   
C313     C      0.819100000000     0.998790000000     0.027590000000     0.473348   
C314     C      0.697840000000     0.998950000000     0.021790000000     0.472727   
C315     C      0.763190000000     0.501770000000     0.945680000000     0.476184   
C316     C      0.756050000000     0.495910000000     0.107230000000     0.475568   
C317     C      0.698960000000     0.267720000000     0.016630000000     0.47369    
C318     C      0.820180000000     0.268050000000     0.004230000000     0.472535   
C319     C      0.761540000000     0.263840000000     0.091910000000     0.472593   
C320     C      0.757070000000     0.271700000000     0.930450000000     0.473904   
C321     C      0.512530000000     0.016050000000     0.756800000000     0.474128   
C322     C      0.519700000000     0.016830000000     0.594880000000     0.471887   
C323     C      0.015480000000     0.455830000000     0.677910000000     0.464977   
C324     C      0.015730000000     0.076460000000     0.674910000000     0.464513   
C325     C      0.015610000000     0.264410000000     0.741220000000     0.46228    
C326     C      0.013140000000     0.266420000000     0.579030000000     0.464321   
C327     C      0.514670000000     0.325860000000     0.661170000000     0.473586   
C328     C      0.514690000000     0.205350000000     0.656920000000     0.47354    
C329     C      0.775720000000     0.504240000000     0.772550000000     0.476319   
C330     C      0.771730000000     0.516190000000     0.611900000000     0.474597   
C331     C      0.773270000000     0.070270000000     0.700680000000     0.473402   
C332     C      0.773730000000     0.450550000000     0.685410000000     0.473335   
C333     C      0.771890000000     0.260350000000     0.760530000000     0.47433    
C334     C      0.775350000000     0.259580000000     0.598750000000     0.475704   
C335     C      0.773550000000     0.199290000000     0.681300000000     0.473161   
C336     C      0.773700000000     0.319880000000     0.675560000000     0.473658   
C337     C      0.808250000000     0.387130000000     0.663270000000    -0.00852572 
C338     C      0.739000000000     0.352680000000     0.663400000000    -0.00830395 
C339     C      0.808500000000     0.417350000000     0.690640000000    -0.00824776 
C340     C      0.738760000000     0.382800000000     0.690510000000    -0.00822944 
C341     C      0.738840000000     0.103780000000     0.710280000000    -0.00861781 
C342     C      0.808050000000     0.138000000000     0.710260000000    -0.00846566 
C343     C      0.738730000000     0.131210000000     0.678150000000    -0.00841229 
C344     C      0.808380000000     0.165810000000     0.678460000000    -0.0081774  
C345     C      0.549640000000     0.422060000000     0.686570000000    -0.00832151 
C346     C      0.980290000000     0.388070000000     0.686100000000    -0.00421989 
C347     C      0.549590000000     0.393770000000     0.655790000000    -0.00837673 
C348     C      0.980030000000     0.359380000000     0.655830000000    -0.00393677 
C349     C      0.980530000000     0.109450000000     0.679920000000    -0.00391923 
C350     C      0.550080000000     0.144410000000     0.680130000000    -0.0082889  
C351     C      0.980420000000     0.137540000000     0.648930000000    -0.00455647 
C352     C      0.549770000000     0.172400000000     0.649160000000    -0.00836944 
C353     C      0.740350000000     0.229870000000     0.827750000000    -0.00743654 
C354     C      0.801190000000     0.289390000000     0.829400000000    -0.00818687 
C355     C      0.725230000000     0.244670000000     0.862050000000    -0.00695554 
C356     C      0.785280000000     0.304480000000     0.862860000000    -0.00862377 
C357     C      0.733760000000     0.475580000000     0.876370000000    -0.00781967 
C358     C      0.791360000000     0.037220000000     0.878910000000    -0.00756718 
C359     C      0.748230000000     0.465790000000     0.836650000000    -0.00674831 
C360     C      0.806880000000     0.025720000000     0.841410000000    -0.0077527  
C361     C      0.853560000000     0.234190000000     0.990140000000    -0.00857116 
C362     C      0.888200000000     0.303150000000     0.994410000000    -0.00861099 
C363     C      0.883610000000     0.233060000000     0.016990000000    -0.00827284 
C364     C      0.918330000000     0.301920000000     0.020930000000    -0.00832105 
C365     C      0.630280000000     0.233220000000     0.017400000000    -0.0083522  
C366     C      0.664990000000     0.302100000000     0.021340000000    -0.00798249 
C367     C      0.606690000000     0.234840000000     0.980880000000    -0.0085739  
C368     C      0.641250000000     0.303610000000     0.984970000000    -0.0086611  
C369     C      0.973760000000     0.244420000000     0.847330000000    -0.0035977  
C370     C      0.033060000000     0.305030000000     0.846900000000    -0.00923022 
C371     C      0.487080000000     0.231820000000     0.808730000000    -0.00800102 
C372     C      0.547410000000     0.291720000000     0.809690000000    -0.00836161 
C373     C      0.887780000000     0.032740000000     0.028930000000    -0.00841657 
C374     C      0.853440000000     0.463200000000     0.029330000000    -0.00796354 
C375     C      0.912340000000     0.032420000000     0.992730000000    -0.00819593 
C376     C      0.877640000000     0.463250000000     0.992540000000    -0.00842018 
C377     C      0.664150000000     0.033180000000     0.013840000000    -0.0082865  
C378     C      0.631650000000     0.463900000000     0.008190000000    -0.00855124 
C379     C      0.632140000000     0.030860000000     0.040070000000    -0.00814672 
C380     C      0.599090000000     0.462220000000     0.032460000000    -0.00807385 
C381     C      0.538760000000     0.046120000000     0.826260000000    -0.0077812  
C382     C      0.977990000000     0.486080000000     0.821830000000    -0.00619214 
C383     C      0.551040000000     0.031790000000     0.864260000000    -0.00769625 
C384     C      0.992040000000     0.470500000000     0.856650000000     0.00497219 
C385     C      0.733980000000     0.237250000000     0.493560000000    -0.00692443 
C386     C      0.793480000000     0.235910000000     0.494430000000    -0.00800501 
C387     C      0.747410000000     0.263920000000     0.531120000000    -0.0072097  
C388     C      0.807800000000     0.263850000000     0.531070000000    -0.00786505 
C389     C      0.782900000000     0.298610000000     0.202250000000    -0.00792611 
C390     C      0.784640000000     0.239970000000     0.194540000000    -0.00811445 
C391     C      0.758540000000     0.288890000000     0.162320000000    -0.00832992 
C392     C      0.757720000000     0.228630000000     0.156850000000    -0.00783951 
C393     C      0.739680000000     0.020660000000     0.546690000000    -0.00675328 
C394     C      0.800050000000     0.521360000000     0.540860000000    -0.00829962 
C395     C      0.722890000000     0.991890000000     0.511280000000    -0.00825197 
C396     C      0.782870000000     0.491350000000     0.506530000000    -0.00793401 
C397     C      0.730290000000     0.452400000000     0.212860000000    -0.00703858 
C398     C      0.729820000000     0.012250000000     0.211540000000    -0.00750517 
C399     C      0.756150000000     0.464980000000     0.174210000000    -0.00808845 
C400     C      0.758080000000     0.026410000000     0.175120000000    -0.00751439 
C401     C      0.981550000000     0.267250000000     0.512480000000    -0.0020439  
C402     C      0.541720000000     0.267150000000     0.509340000000    -0.00859008 
C403     C      0.964980000000     0.236480000000     0.479360000000    -0.00754191 
C404     C      0.524650000000     0.235460000000     0.476890000000    -0.00858401 
C405     C      0.838150000000     0.118170000000     0.356990000000    -0.00973325 
C406     C      0.873100000000     0.083900000000     0.352830000000    -0.00921798 
C407     C      0.864650000000     0.145950000000     0.324130000000    -0.00806257 
C408     C      0.899680000000     0.112020000000     0.320300000000    -0.00881952 
C409     C      0.649510000000     0.360410000000     0.366700000000    -0.00841184 
C410     C      0.614650000000     0.394480000000     0.370380000000    -0.00845374 
C411     C      0.623440000000     0.335620000000     0.331440000000    -0.00934704 
C412     C      0.588310000000     0.369700000000     0.335340000000    -0.00927182 
C413     C      0.521260000000     0.233260000000     0.140530000000    -0.00764091 
C414     C      0.021700000000     0.293040000000     0.147490000000    -0.015833   
C415     C      0.493740000000     0.217250000000     0.177590000000    -0.00815411 
C416     C      0.992100000000     0.276270000000     0.182490000000    -0.000539961
C417     C      0.993390000000     0.020380000000     0.525560000000     0.00548031 
C418     C      0.554920000000     0.022900000000     0.528710000000    -0.00771792 
C419     C      0.982770000000     0.494650000000     0.484720000000    -0.00553818 
C420     C      0.543400000000     0.495730000000     0.489170000000    -0.00819425 
C421     C      0.891590000000     0.407830000000     0.332540000000    -0.00825137 
C422     C      0.927200000000     0.374180000000     0.328730000000    -0.00838621 
C423     C      0.866090000000     0.380480000000     0.366120000000    -0.00772178 
C424     C      0.901330000000     0.346710000000     0.361940000000    -0.0071821  
C425     C      0.647400000000     0.095850000000     0.321930000000    -0.00761546 
C426     C      0.613030000000     0.130530000000     0.325440000000    -0.00759134 
C427     C      0.678960000000     0.125810000000     0.347920000000    -0.00834941 
C428     C      0.644620000000     0.160890000000     0.351060000000    -0.00820598 
C429     C      0.523040000000     0.035700000000     0.190720000000    -0.00682742 
C430     C      0.022300000000     0.474850000000     0.188380000000    -0.0154199  
C431     C      0.492330000000     0.021810000000     0.157300000000    -0.00645747 
C432     C      0.990720000000     0.460610000000     0.155710000000    -0.000916789
C433     C      0.021490000000     0.503410000000     0.257140000000     0.473492   
C434     C      0.018550000000     0.501110000000     0.419200000000     0.470749   
C435     C      0.959620000000     0.942670000000     0.337400000000     0.475176   
C436     C      0.580700000000     0.562530000000     0.336770000000     0.476092   
C437     C      0.994090000000     0.744310000000     0.247760000000     0.480873   
C438     C      0.994000000000     0.737810000000     0.409720000000     0.482005   
C439     C      0.933200000000     0.680140000000     0.326540000000     0.469188   
C440     C      0.554520000000     0.801470000000     0.331500000000     0.469986   
C441     C      0.737780000000     0.986650000000     0.279220000000     0.473444   
C442     C      0.749350000000     0.991420000000     0.440700000000     0.472548   
C443     C      0.804360000000     0.550010000000     0.355490000000     0.46922    
C444     C      0.683300000000     0.928750000000     0.364450000000     0.470283   
C445     C      0.776810000000     0.760740000000     0.265990000000     0.47329    
C446     C      0.768730000000     0.745120000000     0.426930000000     0.476031   
C447     C      0.832720000000     0.813200000000     0.355100000000     0.477234   
C448     C      0.712520000000     0.692990000000     0.341460000000     0.475533   
C449     C      0.945590000000     0.997380000000     0.998570000000     0.473574   
C450     C      0.565480000000     0.996750000000     0.021340000000     0.472945   
C451     C      0.514980000000     0.499490000000     0.927240000000     0.473985   
C452     C      0.497400000000     0.493660000000     0.087910000000     0.475122   
C453     C      0.572530000000     0.768750000000     0.987280000000     0.473728   
C454     C      0.951370000000     0.767800000000     0.004960000000     0.472962   
C455     C      0.016640000000     0.765070000000     0.076020000000     0.471292   
C456     C      0.007350000000     0.771410000000     0.914700000000     0.462448   
C457     C      0.820060000000     0.498250000000     0.029050000000     0.474441   
C458     C      0.698940000000     0.498540000000     0.022190000000     0.47341    
C459     C      0.761720000000     0.002360000000     0.944660000000     0.475799   
C460     C      0.755590000000     0.996430000000     0.106360000000     0.473886   
C461     C      0.698850000000     0.767540000000     0.016870000000     0.473593   
C462     C      0.820080000000     0.767890000000     0.004410000000     0.472741   
C463     C      0.761460000000     0.763670000000     0.092150000000     0.472447   
C464     C      0.756960000000     0.771540000000     0.930680000000     0.473889   
C465     C      0.511830000000     0.515930000000     0.755510000000     0.473128   
C466     C      0.519450000000     0.516550000000     0.593550000000     0.471397   
C467     C      0.015980000000     0.956060000000     0.678970000000     0.465256   
C468     C      0.015330000000     0.576270000000     0.673410000000     0.464925   
C469     C      0.015690000000     0.764340000000     0.740930000000     0.462211   
C470     C      0.013260000000     0.766790000000     0.578760000000     0.464269   
C471     C      0.514940000000     0.826100000000     0.661210000000     0.473428   
C472     C      0.514620000000     0.705430000000     0.656290000000     0.473251   
C473     C      0.774990000000     0.003970000000     0.772000000000     0.476275   
C474     C      0.771310000000     0.015760000000     0.611190000000     0.474071   
C475     C      0.773830000000     0.570580000000     0.701490000000     0.473497   
C476     C      0.773180000000     0.950210000000     0.685000000000     0.473088   
C477     C      0.771810000000     0.760290000000     0.760750000000     0.474311   
C478     C      0.775250000000     0.759400000000     0.598980000000     0.475667   
C479     C      0.773690000000     0.699290000000     0.681640000000     0.473229   
C480     C      0.773410000000     0.819650000000     0.675670000000     0.473678   
C481     C      0.807800000000     0.886860000000     0.663200000000    -0.00849627 
C482     C      0.738550000000     0.852280000000     0.663330000000    -0.00832022 
C483     C      0.807980000000     0.917070000000     0.690490000000    -0.00820408 
C484     C      0.738240000000     0.882450000000     0.690260000000    -0.00831446 
C485     C      0.739330000000     0.604020000000     0.711190000000    -0.00860047 
C486     C      0.808540000000     0.638340000000     0.710860000000    -0.00861784 
C487     C      0.739050000000     0.631210000000     0.678840000000    -0.00828355 
C488     C      0.808690000000     0.665970000000     0.678900000000    -0.00806405 
C489     C      0.550150000000     0.922240000000     0.687150000000    -0.00827724 
C490     C      0.980800000000     0.888280000000     0.686980000000    -0.00416186 
C491     C      0.549980000000     0.894030000000     0.656130000000    -0.00844384 
C492     C      0.980410000000     0.859750000000     0.656370000000    -0.0039809  
C493     C      0.980190000000     0.609320000000     0.678420000000    -0.00388987 
C494     C      0.549750000000     0.644190000000     0.678880000000    -0.00826575 
C495     C      0.980230000000     0.637670000000     0.647730000000    -0.00465582 
C496     C      0.549570000000     0.672390000000     0.648160000000    -0.00835137 
C497     C      0.740320000000     0.729750000000     0.827970000000    -0.0074825  
C498     C      0.801080000000     0.789360000000     0.829620000000    -0.00823749 
C499     C      0.725140000000     0.744490000000     0.862270000000    -0.00696702 
C500     C      0.785120000000     0.804370000000     0.863110000000    -0.00858083 
C501     C      0.732240000000     0.975930000000     0.875270000000    -0.00811599 
C502     C      0.793050000000     0.536730000000     0.880150000000    -0.00708059 
C503     C      0.747220000000     0.965740000000     0.836290000000    -0.00682648 
C504     C      0.808000000000     0.525610000000     0.841770000000    -0.00758006 
C505     C      0.853430000000     0.734030000000     0.990090000000    -0.00863993 
C506     C      0.888080000000     0.802980000000     0.994440000000    -0.00842014 
C507     C      0.883560000000     0.732880000000     0.016750000000    -0.0081956  
C508     C      0.918300000000     0.801740000000     0.020750000000    -0.00852574 
C509     C      0.630180000000     0.733020000000     0.017580000000    -0.00835896 
C510     C      0.664870000000     0.801900000000     0.021470000000    -0.00804409 
C511     C      0.606640000000     0.734620000000     0.980970000000    -0.00855197 
C512     C      0.641190000000     0.803380000000     0.985000000000    -0.00852243 
C513     C      0.973820000000     0.744250000000     0.847050000000    -0.00370091 
C514     C      0.033180000000     0.804820000000     0.846660000000    -0.00918451 
C515     C      0.487120000000     0.731670000000     0.808390000000    -0.00806179 
C516     C      0.547500000000     0.791510000000     0.809440000000    -0.00834365 
C517     C      0.888750000000     0.532210000000     0.030050000000    -0.00825501 
C518     C      0.852400000000     0.963670000000     0.028290000000    -0.00812448 
C519     C      0.912690000000     0.531980000000     0.993090000000    -0.00816104 
C520     C      0.877120000000     0.963670000000     0.992140000000    -0.00849537 
C521     C      0.665610000000     0.532920000000     0.013040000000    -0.00822367 
C522     C      0.630340000000     0.964150000000     0.008530000000    -0.00860909 
C523     C      0.632940000000     0.530930000000     0.037490000000    -0.00808544 
C524     C      0.598380000000     0.962210000000     0.034460000000    -0.00828646 
C525     C      0.538110000000     0.546090000000     0.824970000000    -0.0078557  
C526     C      0.978680000000     0.986080000000     0.823020000000    -0.00597477 
C527     C      0.550760000000     0.531490000000     0.862340000000    -0.00772075 
C528     C      0.992480000000     0.970730000000     0.858320000000     0.0052528  
C529     C      0.733870000000     0.736900000000     0.493800000000    -0.0069982  
C530     C      0.793530000000     0.735860000000     0.494650000000    -0.00801082 
C531     C      0.747210000000     0.763570000000     0.531350000000    -0.00716076 
C532     C      0.807750000000     0.763790000000     0.531300000000    -0.00785725 
C533     C      0.782660000000     0.798440000000     0.202490000000    -0.0079052  
C534     C      0.784690000000     0.739950000000     0.194790000000    -0.00820871 
C535     C      0.758320000000     0.788650000000     0.162540000000    -0.00842611 
C536     C      0.757770000000     0.728520000000     0.157080000000    -0.00774538 
C537     C      0.740100000000     0.521280000000     0.547530000000    -0.00687004 
C538     C      0.799680000000     0.020780000000     0.540170000000    -0.00806128 
C539     C      0.723260000000     0.492610000000     0.512040000000    -0.00765244 
C540     C      0.782520000000     0.990650000000     0.505940000000    -0.00858317 
C541     C      0.730180000000     0.952690000000     0.211830000000    -0.00728077 
C542     C      0.729850000000     0.511900000000     0.212300000000    -0.00767634 
C543     C      0.756120000000     0.965380000000     0.173200000000    -0.00821928 
C544     C      0.757900000000     0.525920000000     0.175690000000    -0.007123   
C545     C      0.981690000000     0.767700000000     0.512210000000    -0.00211211 
C546     C      0.541820000000     0.767550000000     0.509040000000    -0.0084871  
C547     C      0.965060000000     0.736880000000     0.479150000000    -0.00760486 
C548     C      0.524720000000     0.735820000000     0.476640000000    -0.00861597 
C549     C      0.838030000000     0.618230000000     0.357300000000    -0.00976803 
C550     C      0.873030000000     0.584010000000     0.353290000000    -0.00914593 
C551     C      0.864460000000     0.645920000000     0.324310000000    -0.00803668 
C552     C      0.899500000000     0.612000000000     0.320610000000    -0.00875518 
C553     C      0.649440000000     0.860420000000     0.365730000000    -0.00850738 
C554     C      0.614640000000     0.894550000000     0.369530000000    -0.00833018 
C555     C      0.623250000000     0.835600000000     0.330580000000    -0.00922091 
C556     C      0.588170000000     0.869710000000     0.334610000000    -0.00932404 
C557     C      0.521000000000     0.733010000000     0.140340000000    -0.00766987 
C558     C      0.021420000000     0.792790000000     0.147240000000    -0.0158187  
C559     C      0.493430000000     0.717000000000     0.177370000000    -0.00818393 
C560     C      0.991760000000     0.776010000000     0.182170000000    -0.000604602
C561     C      0.993190000000     0.519620000000     0.523900000000     0.00485798 
C562     C      0.554660000000     0.522120000000     0.527450000000    -0.00843423 
C563     C      0.983350000000     0.996370000000     0.485580000000    -0.00659387 
C564     C      0.543920000000     0.997390000000     0.489640000000    -0.00880723 
C565     C      0.891180000000     0.908370000000     0.333990000000    -0.00820438 
C566     C      0.927020000000     0.874940000000     0.329980000000    -0.00849766 
C567     C      0.865390000000     0.880530000000     0.367010000000    -0.00776336 
C568     C      0.900970000000     0.847120000000     0.362760000000    -0.00714273 
C569     C      0.647940000000     0.595270000000     0.322450000000    -0.00752949 
C570     C      0.613360000000     0.629770000000     0.325670000000    -0.00759226 
C571     C      0.679480000000     0.625440000000     0.348300000000    -0.00859493 
C572     C      0.644820000000     0.660190000000     0.351340000000    -0.00810472 
C573     C      0.524160000000     0.535700000000     0.190000000000    -0.00701378 
C574     C      0.020700000000     0.974620000000     0.189260000000    -0.0154243  
C575     C      0.493900000000     0.521900000000     0.156000000000    -0.00699215 
C576     C      0.988730000000     0.960380000000     0.157130000000    -0.000621085
H1       H      0.236990000000     0.358690000000     0.629150000000     0.033254   
H2       H      0.310100000000     0.395190000000     0.629050000000     0.0334947  
H3       H      0.333160000000     0.443960000000     0.681800000000     0.0351191  
H4       H      0.214030000000     0.326020000000     0.671300000000     0.0367707  
H5       H      0.214170000000     0.384970000000     0.681470000000     0.0363779  
H6       H      0.235550000000     0.374280000000     0.724670000000     0.0346123  
H7       H      0.333260000000     0.385310000000     0.671000000000     0.0362983  
H8       H      0.311530000000     0.411780000000     0.724760000000     0.0347269  
H9       H      0.309730000000     0.148900000000     0.743130000000     0.0342546  
H10      H      0.237240000000     0.113190000000     0.743070000000     0.0342019  
H11      H      0.213910000000     0.133830000000     0.684110000000     0.0359081  
H12      H      0.333090000000     0.135590000000     0.705120000000     0.0366711  
H13      H      0.333190000000     0.193040000000     0.684640000000     0.0352954  
H14      H      0.311080000000     0.157140000000     0.645660000000     0.0336376  
H15      H      0.213730000000     0.076560000000     0.705100000000     0.0367574  
H16      H      0.236260000000     0.119850000000     0.645400000000     0.0344451  
H17      H      0.478040000000     0.377910000000     0.719450000000     0.0333958  
H18      H      0.051350000000     0.413620000000     0.719840000000     0.033106   
H19      H      0.074400000000     0.391270000000     0.662400000000     0.0365967  
H20      H      0.455460000000     0.390550000000     0.679670000000     0.036347   
H21      H      0.455130000000     0.332360000000     0.662660000000     0.0351677  
H22      H      0.477530000000     0.367150000000     0.622490000000     0.0345677  
H23      H      0.074770000000     0.449090000000     0.680480000000     0.036588   
H24      H      0.052020000000     0.404240000000     0.622570000000     0.0341103  
H25      H      0.052330000000     0.154980000000     0.713270000000     0.0331634  
H26      H      0.477990000000     0.117620000000     0.713050000000     0.0334579  
H27      H      0.455310000000     0.139650000000     0.654930000000     0.0365227  
H28      H      0.075080000000     0.142210000000     0.673770000000     0.0361481  
H29      H      0.074650000000     0.199620000000     0.655170000000     0.036964   
H30      H      0.051880000000     0.163980000000     0.616010000000     0.0331847  
H31      H      0.455790000000     0.082230000000     0.673440000000     0.0352959  
H32      H      0.478590000000     0.127160000000     0.615750000000     0.0344905  
H33      H      0.316230000000     0.277530000000     0.846360000000     0.0365656  
H34      H      0.251260000000     0.213690000000     0.844000000000     0.0356484  
H35      H      0.204960000000     0.221660000000     0.882380000000     0.0369032  
H36      H      0.321290000000     0.312460000000     0.808990000000     0.0373383  
H37      H      0.308060000000     0.324220000000     0.883920000000     0.0376669  
H38      H      0.273410000000     0.319480000000     0.845910000000     0.0363403  
H39      H      0.217420000000     0.210730000000     0.806460000000     0.0375403  
H40      H      0.210130000000     0.256740000000     0.845670000000     0.0349523  
H41      H      0.280860000000     0.553550000000     0.869170000000     0.0364049  
H42      H      0.216130000000     0.486990000000     0.865720000000     0.035369   
H43      H      0.224730000000     0.448250000000     0.815100000000     0.0373757  
H44      H      0.314550000000     0.055350000000     0.900540000000     0.0366971  
H45      H      0.326480000000     0.050630000000     0.823070000000     0.0371154  
H46      H      0.322310000000     0.012610000000     0.854360000000     0.0361265  
H47      H      0.215850000000     0.450120000000     0.894830000000     0.0381963  
H48      H      0.259780000000     0.949330000000     0.847600000000     0.0346213  
H49      H      0.396890000000     0.307120000000     0.960270000000     0.0335057  
H50      H      0.360000000000     0.233390000000     0.955750000000     0.0350012  
H51      H      0.385580000000     0.208650000000     0.007330000000     0.0367745  
H52      H      0.386130000000     0.327420000000     0.004460000000     0.0353339  
H53      H      0.445230000000     0.327010000000     0.014080000000     0.0343887  
H54      H      0.411970000000     0.302620000000     0.055370000000     0.0338673  
H55      H      0.326670000000     0.209120000000     0.997110000000     0.0372934  
H56      H      0.374960000000     0.229520000000     0.051140000000     0.034133   
H57      H      0.151990000000     0.302590000000     0.052210000000     0.03374    
H58      H      0.115440000000     0.230170000000     0.048030000000     0.0337548  
H59      H      0.078880000000     0.209810000000     0.981940000000     0.0362985  
H60      H      0.192830000000     0.327080000000     0.020050000000     0.0342153  
H61      H      0.138490000000     0.328400000000     0.988940000000     0.0358654  
H62      H      0.155970000000     0.306520000000     0.954280000000     0.0344299  
H63      H      0.133070000000     0.208460000000     0.013240000000     0.0363169  
H64      H      0.119910000000     0.234650000000     0.950050000000     0.0341983  
H65      H      0.519990000000     0.320300000000     0.833450000000     0.0364452  
H66      H      0.456700000000     0.256020000000     0.835200000000     0.0350562  
H67      H      0.462980000000     0.213610000000     0.788280000000     0.0378049  
H68      H      0.056900000000     0.324250000000     0.867080000000     0.0374375  
H69      H      0.066180000000     0.315730000000     0.789560000000     0.0365439  
H70      H      0.063610000000     0.279610000000     0.823100000000     0.0360261  
H71      H      0.455530000000     0.220250000000     0.867540000000     0.0377778  
H72      H      0.998990000000     0.215050000000     0.820810000000     0.0368261  
H73      H      0.365800000000     0.460940000000     0.059900000000     0.0340977  
H74      H      0.401680000000     0.034480000000     0.059910000000     0.0351001  
H75      H      0.440220000000     0.057200000000     0.995450000000     0.0370037  
H76      H      0.325520000000     0.438500000000     0.026560000000     0.0344685  
H77      H      0.380030000000     0.438110000000     0.994510000000     0.0356201  
H78      H      0.363580000000     0.462170000000     0.961900000000     0.0345108  
H79      H      0.385240000000     0.057730000000     0.025820000000     0.0367293  
H80      H      0.400150000000     0.034150000000     0.961770000000     0.0338651  
H81      H      0.125870000000     0.462850000000     0.973320000000     0.0332799  
H82      H      0.159920000000     0.037730000000     0.979740000000     0.0345447  
H83      H      0.130280000000     0.055930000000     0.033940000000     0.0369862  
H84      H      0.133350000000     0.439040000000     0.016340000000     0.0356725  
H85      H      0.073150000000     0.437790000000     0.021380000000     0.0334688  
H86      H      0.102470000000     0.458360000000     0.067050000000     0.0333022  
H87      H      0.190280000000     0.057430000000     0.024860000000     0.036859   
H88      H      0.138600000000     0.030720000000     0.074580000000     0.0343695  
H89      H      0.461850000000     0.497460000000     0.837260000000     0.0367812  
H90      H      0.526330000000     0.062150000000     0.839170000000     0.0346279  
H91      H      0.067910000000     0.054830000000     0.886540000000     0.0371644  
H92      H      0.459260000000     0.463390000000     0.800080000000     0.0373717  
H93      H      0.467960000000     0.449440000000     0.875110000000     0.0381149  
H94      H      0.005960000000     0.456870000000     0.841030000000     0.029232   
H95      H      0.063380000000     0.065320000000     0.807110000000     0.0373332  
H96      H      0.069170000000     0.021550000000     0.851770000000     0.0344894  
H97      H      0.280310000000     0.207800000000     0.508330000000     0.0359986  
H98      H      0.217510000000     0.208930000000     0.506590000000     0.0348822  
H99      H      0.223410000000     0.258820000000     0.551380000000     0.0375347  
H100     H      0.317300000000     0.240090000000     0.474380000000     0.0375498  
H101     H      0.326480000000     0.258670000000     0.551620000000     0.0367523  
H102     H      0.324040000000     0.291900000000     0.517260000000     0.0365546  
H103     H      0.215290000000     0.242430000000     0.473070000000     0.0372347  
H104     H      0.259530000000     0.292250000000     0.518100000000     0.0352691  
H105     H      0.313370000000     0.254010000000     0.181840000000     0.0365707  
H106     H      0.312090000000     0.316720000000     0.192180000000     0.0345604  
H107     H      0.265770000000     0.314490000000     0.144440000000     0.03819    
H108     H      0.279750000000     0.214810000000     0.211890000000     0.0375157  
H109     H      0.263360000000     0.211340000000     0.134610000000     0.0367257  
H110     H      0.229030000000     0.211810000000     0.169190000000     0.0367806  
H111     H      0.275770000000     0.314680000000     0.224650000000     0.0374778  
H112     H      0.229350000000     0.276880000000     0.173010000000     0.0346866  
H113     H      0.314240000000     0.548590000000     0.524710000000     0.0361857  
H114     H      0.250900000000     0.048200000000     0.531700000000     0.0350057  
H115     H      0.202840000000     0.996400000000     0.492610000000     0.0380477  
H116     H      0.321010000000     0.517920000000     0.559060000000     0.0370977  
H117     H      0.304880000000     0.494860000000     0.483750000000     0.0369745  
H118     H      0.271680000000     0.464110000000     0.522310000000     0.0364744  
H119     H      0.217670000000     0.017080000000     0.569480000000     0.0372832  
H120     H      0.207120000000     0.964430000000     0.526660000000     0.0355249  
H121     H      0.201320000000     0.499380000000     0.199190000000     0.0360335  
H122     H      0.201430000000     0.436020000000     0.200850000000     0.0344021  
H123     H      0.249310000000     0.440880000000     0.153520000000     0.0382255  
H124     H      0.234270000000     0.035870000000     0.231810000000     0.0373224  
H125     H      0.253520000000     0.045740000000     0.155200000000     0.0372478  
H126     H      0.286310000000     0.041800000000     0.189110000000     0.0370538  
H127     H      0.235820000000     0.433930000000     0.233130000000     0.0371081  
H128     H      0.284780000000     0.975970000000     0.185120000000     0.0352012  
H129     H      0.056340000000     0.293510000000     0.491430000000     0.0350373  
H130     H      0.492660000000     0.293840000000     0.495210000000     0.0357751  
H131     H      0.444400000000     0.239260000000     0.459520000000     0.0376138  
H132     H      0.062320000000     0.264420000000     0.529200000000     0.0368071  
H133     H      0.046750000000     0.237690000000     0.455110000000     0.0374526  
H134     H      0.013190000000     0.209070000000     0.494670000000     0.0351563  
H135     H      0.459440000000     0.264840000000     0.534340000000     0.037842   
H136     H      0.449940000000     0.209920000000     0.496800000000     0.0356864  
H137     H      0.385700000000     0.092330000000     0.385160000000     0.0345088  
H138     H      0.348220000000     0.129420000000     0.389550000000     0.0347842  
H139     H      0.367100000000     0.173090000000     0.330580000000     0.033608   
H140     H      0.370330000000     0.056750000000     0.345580000000     0.0373407  
H141     H      0.427370000000     0.114660000000     0.324070000000     0.0363461  
H142     H      0.389510000000     0.101120000000     0.287650000000     0.0342017  
H143     H      0.310440000000     0.115420000000     0.352830000000     0.0368329  
H144     H      0.352260000000     0.136880000000     0.291790000000     0.033595   
H145     H      0.102110000000     0.382480000000     0.401940000000     0.0338745  
H146     H      0.138670000000     0.346570000000     0.398020000000     0.0336882  
H147     H      0.120820000000     0.308050000000     0.334110000000     0.0370725  
H148     H      0.117110000000     0.422000000000     0.368250000000     0.034601   
H149     H      0.060570000000     0.366560000000     0.340800000000     0.0355504  
H150     H      0.098640000000     0.383770000000     0.304040000000     0.0333876  
H151     H      0.177210000000     0.363290000000     0.361890000000     0.0359788  
H152     H      0.136290000000     0.347410000000     0.299930000000     0.0345463  
H153     H      0.549380000000     0.307300000000     0.162980000000     0.0365396  
H154     H      0.049540000000     0.244250000000     0.153900000000     0.0349809  
H155     H      0.999370000000     0.198050000000     0.196270000000     0.0387972  
H156     H      0.517890000000     0.313720000000     0.129440000000     0.0374845  
H157     H      0.495810000000     0.298410000000     0.204920000000     0.037442   
H158     H      0.464410000000     0.264700000000     0.167290000000     0.0367533  
H159     H      0.016430000000     0.210950000000     0.117760000000     0.0367516  
H160     H      0.965560000000     0.200870000000     0.163720000000     0.0345942  
H161     H      0.071270000000     0.051840000000     0.517520000000     0.0363065  
H162     H      0.504840000000     0.049370000000     0.515130000000     0.0349496  
H163     H      0.464860000000     0.500170000000     0.463260000000     0.0376739  
H164     H      0.072840000000     0.017180000000     0.549930000000     0.0368671  
H165     H      0.069420000000     0.004740000000     0.471050000000     0.0365164  
H166     H      0.030920000000     0.467160000000     0.501520000000     0.0349475  
H167     H      0.467780000000     0.512510000000     0.542510000000     0.0381701  
H168     H      0.466050000000     0.465740000000     0.495850000000     0.0348423  
H169     H      0.416560000000     0.362700000000     0.296380000000     0.0339676  
H170     H      0.378700000000     0.398180000000     0.300510000000     0.0346558  
H171     H      0.338310000000     0.377810000000     0.363500000000     0.0364109  
H172     H      0.455040000000     0.377090000000     0.332060000000     0.0367894  
H173     H      0.399070000000     0.319590000000     0.356080000000     0.0338785  
H174     H      0.413900000000     0.356360000000     0.394100000000     0.034048   
H175     H      0.393900000000     0.434940000000     0.338730000000     0.036967   
H176     H      0.377340000000     0.391800000000     0.398350000000     0.0340258  
H177     H      0.117450000000     0.138300000000     0.291020000000     0.0331847  
H178     H      0.154110000000     0.101790000000     0.287370000000     0.0343521  
H179     H      0.205270000000     0.127620000000     0.337420000000     0.0368732  
H180     H      0.086680000000     0.128840000000     0.335460000000     0.0357342  
H181     H      0.146530000000     0.187500000000     0.342710000000     0.0373159  
H182     H      0.137640000000     0.155780000000     0.385660000000     0.0342933  
H183     H      0.145750000000     0.069170000000     0.329140000000     0.0353599  
H184     H      0.174650000000     0.117570000000     0.382200000000     0.033917   
H185     H      0.548920000000     0.485870000000     0.170790000000     0.0364909  
H186     H      0.051310000000     0.550770000000     0.173440000000     0.0358126  
H187     H      0.996030000000     0.045000000000     0.136720000000     0.0379839  
H188     H      0.518700000000     0.451590000000     0.208780000000     0.0371489  
H189     H      0.492060000000     0.439840000000     0.134920000000     0.0382204  
H190     H      0.461930000000     0.946590000000     0.174580000000     0.0358389  
H191     H      0.021180000000     0.055890000000     0.212060000000     0.0369455  
H192     H      0.965550000000     0.011140000000     0.174440000000     0.0353021  
H193     H      0.236500000000     0.858140000000     0.629040000000     0.0332341  
H194     H      0.309620000000     0.894860000000     0.628970000000     0.0335527  
H195     H      0.332640000000     0.943690000000     0.681660000000     0.0351493  
H196     H      0.213630000000     0.825610000000     0.671340000000     0.0367767  
H197     H      0.213650000000     0.884580000000     0.681080000000     0.0363334  
H198     H      0.234990000000     0.874030000000     0.724450000000     0.0345966  
H199     H      0.332860000000     0.885130000000     0.670950000000     0.0363143  
H200     H      0.310960000000     0.911540000000     0.724640000000     0.0347139  
H201     H      0.310300000000     0.649380000000     0.743660000000     0.0343035  
H202     H      0.237860000000     0.613640000000     0.743910000000     0.0342193  
H203     H      0.214180000000     0.633770000000     0.684760000000     0.0359134  
H204     H      0.333590000000     0.635960000000     0.705690000000     0.0367056  
H205     H      0.333470000000     0.693260000000     0.684910000000     0.0352609  
H206     H      0.311350000000     0.657180000000     0.646150000000     0.0335794  
H207     H      0.214220000000     0.576740000000     0.706280000000     0.0367898  
H208     H      0.236530000000     0.619670000000     0.646180000000     0.0344147  
H209     H      0.478690000000     0.877970000000     0.720240000000     0.0334287  
H210     H      0.051960000000     0.913680000000     0.720330000000     0.0330498  
H211     H      0.074760000000     0.891440000000     0.662540000000     0.0365472  
H212     H      0.455950000000     0.890810000000     0.680870000000     0.0363558  
H213     H      0.455490000000     0.832720000000     0.663070000000     0.0352217  
H214     H      0.477890000000     0.867740000000     0.623150000000     0.0346201  
H215     H      0.075270000000     0.949280000000     0.681090000000     0.0364752  
H216     H      0.052370000000     0.904640000000     0.622980000000     0.0340587  
H217     H      0.051960000000     0.654570000000     0.712110000000     0.0331666  
H218     H      0.477520000000     0.617220000000     0.711630000000     0.0333755  
H219     H      0.455150000000     0.639810000000     0.653810000000     0.0365688  
H220     H      0.074730000000     0.641970000000     0.672450000000     0.0361833  
H221     H      0.074480000000     0.699540000000     0.654360000000     0.0369975  
H222     H      0.051700000000     0.664140000000     0.614930000000     0.0332058  
H223     H      0.455460000000     0.582170000000     0.671640000000     0.035208   
H224     H      0.478440000000     0.627520000000     0.614450000000     0.0345161  
H225     H      0.316170000000     0.777550000000     0.846570000000     0.0365693  
H226     H      0.251280000000     0.713630000000     0.844210000000     0.0356578  
H227     H      0.204900000000     0.721460000000     0.882600000000     0.0369111  
H228     H      0.321150000000     0.812450000000     0.809220000000     0.0373208  
H229     H      0.307880000000     0.824140000000     0.884170000000     0.0376337  
H230     H      0.273200000000     0.819330000000     0.846170000000     0.0362976  
H231     H      0.217400000000     0.710590000000     0.806680000000     0.0375562  
H232     H      0.210000000000     0.756520000000     0.845910000000     0.0349641  
H233     H      0.278820000000     0.053250000000     0.866220000000     0.0366233  
H234     H      0.214730000000     0.987200000000     0.863680000000     0.0353935  
H235     H      0.224010000000     0.947930000000     0.814540000000     0.0372974  
H236     H      0.316770000000     0.553960000000     0.901620000000     0.036373   
H237     H      0.327030000000     0.550900000000     0.823620000000     0.0370471  
H238     H      0.324080000000     0.512660000000     0.853050000000     0.035793   
H239     H      0.214120000000     0.950690000000     0.893960000000     0.0381622  
H240     H      0.260870000000     0.449210000000     0.847040000000     0.0346268  
H241     H      0.396670000000     0.806990000000     0.960260000000     0.0334783  
H242     H      0.359760000000     0.733250000000     0.955660000000     0.0350329  
H243     H      0.385490000000     0.708470000000     0.006970000000     0.0367401  
H244     H      0.386040000000     0.827250000000     0.004620000000     0.0352108  
H245     H      0.445180000000     0.826820000000     0.013800000000     0.0345145  
H246     H      0.412080000000     0.802440000000     0.055230000000     0.0338624  
H247     H      0.326560000000     0.708960000000     0.997130000000     0.0373534  
H248     H      0.375020000000     0.729300000000     0.050940000000     0.0341055  
H249     H      0.151800000000     0.802390000000     0.052290000000     0.0337999  
H250     H      0.115280000000     0.729990000000     0.048170000000     0.0337691  
H251     H      0.078830000000     0.709590000000     0.982000000000     0.0362816  
H252     H      0.192710000000     0.826880000000     0.020230000000     0.0343851  
H253     H      0.138430000000     0.828180000000     0.988890000000     0.0357683  
H254     H      0.155970000000     0.806270000000     0.954360000000     0.0343831  
H255     H      0.132980000000     0.708260000000     0.013500000000     0.0363071  
H256     H      0.119910000000     0.734400000000     0.950190000000     0.0341662  
H257     H      0.520140000000     0.820140000000     0.833240000000     0.0364312  
H258     H      0.456780000000     0.755880000000     0.834950000000     0.0350503  
H259     H      0.463020000000     0.713520000000     0.787920000000     0.0378176  
H260     H      0.057020000000     0.824010000000     0.866870000000     0.0373953  
H261     H      0.066320000000     0.815530000000     0.789340000000     0.0365464  
H262     H      0.063650000000     0.779340000000     0.822840000000     0.0360176  
H263     H      0.455590000000     0.720070000000     0.867230000000     0.0377819  
H264     H      0.998990000000     0.714850000000     0.820430000000     0.0368124  
H265     H      0.364260000000     0.961300000000     0.059200000000     0.0340135  
H266     H      0.402860000000     0.534210000000     0.060940000000     0.0346862  
H267     H      0.440580000000     0.556750000000     0.995660000000     0.0370212  
H268     H      0.324500000000     0.939010000000     0.025040000000     0.034626   
H269     H      0.379390000000     0.938500000000     0.994510000000     0.0355941  
H270     H      0.363520000000     0.962630000000     0.961150000000     0.0343996  
H271     H      0.386090000000     0.557140000000     0.027010000000     0.0367474  
H272     H      0.400560000000     0.534000000000     0.962220000000     0.0335684  
H273     H      0.123580000000     0.963270000000     0.973960000000     0.0332201  
H274     H      0.163260000000     0.537940000000     0.978540000000     0.0341409  
H275     H      0.131440000000     0.555890000000     0.029310000000     0.0368924  
H276     H      0.132370000000     0.939310000000     0.015680000000     0.0355963  
H277     H      0.072190000000     0.937720000000     0.024080000000     0.0335967  
H278     H      0.102820000000     0.958330000000     0.068720000000     0.0333219  
H279     H      0.191230000000     0.556880000000     0.025630000000     0.0368989  
H280     H      0.138140000000     0.531670000000     0.072480000000     0.0340081  
H281     H      0.461880000000     0.997230000000     0.837230000000     0.0364919  
H282     H      0.525720000000     0.561940000000     0.838560000000     0.0346576  
H283     H      0.067940000000     0.554380000000     0.884660000000     0.0371655  
H284     H      0.460550000000     0.963080000000     0.801270000000     0.0371955  
H285     H      0.468050000000     0.950030000000     0.876640000000     0.0380809  
H286     H      0.006310000000     0.956560000000     0.843850000000     0.028904   
H287     H      0.062530000000     0.565490000000     0.805690000000     0.0372796  
H288     H      0.068670000000     0.521250000000     0.849160000000     0.0345182  
H289     H      0.280470000000     0.707750000000     0.508560000000     0.0359733  
H290     H      0.217510000000     0.708570000000     0.506840000000     0.0348979  
H291     H      0.223170000000     0.758360000000     0.551620000000     0.03751    
H292     H      0.317380000000     0.740140000000     0.474610000000     0.0375677  
H293     H      0.326500000000     0.758720000000     0.551840000000     0.0367508  
H294     H      0.323890000000     0.791860000000     0.517480000000     0.0365568  
H295     H      0.215100000000     0.741950000000     0.473310000000     0.037282   
H296     H      0.259210000000     0.791890000000     0.518320000000     0.0352418  
H297     H      0.313420000000     0.754090000000     0.182110000000     0.0366088  
H298     H      0.311840000000     0.816660000000     0.192450000000     0.0345468  
H299     H      0.265470000000     0.814220000000     0.144660000000     0.0382108  
H300     H      0.279890000000     0.714830000000     0.212140000000     0.037549   
H301     H      0.263510000000     0.711290000000     0.134850000000     0.0366749  
H302     H      0.229090000000     0.711610000000     0.169420000000     0.036784   
H303     H      0.275420000000     0.814430000000     0.224890000000     0.0374708  
H304     H      0.229120000000     0.776540000000     0.173200000000     0.0347185  
H305     H      0.313910000000     0.047950000000     0.523900000000     0.0361079  
H306     H      0.251160000000     0.549090000000     0.533350000000     0.0345718  
H307     H      0.203690000000     0.497880000000     0.493430000000     0.0382538  
H308     H      0.320630000000     0.017390000000     0.558480000000     0.0371139  
H309     H      0.304540000000     0.994100000000     0.483200000000     0.0369621  
H310     H      0.271370000000     0.963480000000     0.521860000000     0.0364574  
H311     H      0.217950000000     0.517200000000     0.570380000000     0.0373047  
H312     H      0.206940000000     0.464900000000     0.526710000000     0.0351358  
H313     H      0.201590000000     0.999530000000     0.197530000000     0.0359704  
H314     H      0.201360000000     0.936330000000     0.199740000000     0.0343796  
H315     H      0.249250000000     0.941370000000     0.152350000000     0.0382061  
H316     H      0.234910000000     0.535800000000     0.232470000000     0.0372826  
H317     H      0.252410000000     0.544550000000     0.155630000000     0.0370222  
H318     H      0.286400000000     0.542040000000     0.188810000000     0.0367374  
H319     H      0.235680000000     0.934150000000     0.232030000000     0.0371447  
H320     H      0.284850000000     0.475730000000     0.186070000000     0.0352874  
H321     H      0.056430000000     0.793890000000     0.491080000000     0.0350112  
H322     H      0.492810000000     0.794270000000     0.494900000000     0.0357395  
H323     H      0.444480000000     0.739660000000     0.459320000000     0.0376393  
H324     H      0.062450000000     0.764840000000     0.528870000000     0.0368481  
H325     H      0.046790000000     0.738010000000     0.454840000000     0.0374221  
H326     H      0.013270000000     0.709450000000     0.494460000000     0.0351556  
H327     H      0.459600000000     0.765330000000     0.534090000000     0.0378377  
H328     H      0.450020000000     0.710340000000     0.496640000000     0.035714   
H329     H      0.385700000000     0.592590000000     0.385580000000     0.0344607  
H330     H      0.348140000000     0.629600000000     0.389810000000     0.0347647  
H331     H      0.366910000000     0.673070000000     0.330650000000     0.0335614  
H332     H      0.370280000000     0.556840000000     0.346210000000     0.0372565  
H333     H      0.427210000000     0.614670000000     0.324310000000     0.0364177  
H334     H      0.389250000000     0.600970000000     0.288010000000     0.0342027  
H335     H      0.310300000000     0.615430000000     0.353150000000     0.036897   
H336     H      0.352000000000     0.636740000000     0.292020000000     0.0335911  
H337     H      0.102190000000     0.882630000000     0.401150000000     0.0338025  
H338     H      0.138700000000     0.846630000000     0.397090000000     0.0337226  
H339     H      0.120640000000     0.808030000000     0.333230000000     0.0370963  
H340     H      0.117110000000     0.922080000000     0.367340000000     0.0345587  
H341     H      0.060460000000     0.866590000000     0.340190000000     0.0356146  
H342     H      0.098400000000     0.883710000000     0.303260000000     0.033464   
H343     H      0.177120000000     0.863280000000     0.360810000000     0.0360527  
H344     H      0.136010000000     0.847350000000     0.299020000000     0.0345668  
H345     H      0.549080000000     0.807060000000     0.162800000000     0.0365361  
H346     H      0.049260000000     0.744000000000     0.153770000000     0.035001   
H347     H      0.999040000000     0.697810000000     0.196080000000     0.038787   
H348     H      0.517640000000     0.813470000000     0.129160000000     0.0374775  
H349     H      0.495410000000     0.798140000000     0.204590000000     0.0374476  
H350     H      0.464100000000     0.764420000000     0.166910000000     0.0367093  
H351     H      0.016200000000     0.710710000000     0.117580000000     0.0367796  
H352     H      0.965270000000     0.700620000000     0.163450000000     0.0345711  
H353     H      0.070850000000     0.550790000000     0.515350000000     0.0363403  
H354     H      0.504730000000     0.548360000000     0.512450000000     0.0352187  
H355     H      0.466060000000     0.003110000000     0.464580000000     0.0383625  
H356     H      0.072800000000     0.516970000000     0.548970000000     0.0369721  
H357     H      0.068570000000     0.501980000000     0.470510000000     0.0362777  
H358     H      0.031710000000     0.968400000000     0.500400000000     0.0349602  
H359     H      0.467810000000     0.012650000000     0.544130000000     0.0382039  
H360     H      0.466100000000     0.967060000000     0.495060000000     0.0345891  
H361     H      0.416670000000     0.863750000000     0.297460000000     0.0339904  
H362     H      0.378590000000     0.899170000000     0.301750000000     0.0345712  
H363     H      0.337570000000     0.877720000000     0.364070000000     0.0364199  
H364     H      0.454870000000     0.877920000000     0.333510000000     0.0368849  
H365     H      0.398930000000     0.820120000000     0.356650000000     0.0339393  
H366     H      0.413240000000     0.856520000000     0.395100000000     0.0340356  
H367     H      0.393380000000     0.935380000000     0.340670000000     0.0367704  
H368     H      0.376220000000     0.891500000000     0.399470000000     0.0339807  
H369     H      0.117830000000     0.637540000000     0.291240000000     0.0332504  
H370     H      0.154640000000     0.601010000000     0.287860000000     0.0343232  
H371     H      0.205840000000     0.627390000000     0.337780000000     0.0369124  
H372     H      0.086950000000     0.628000000000     0.335580000000     0.0357935  
H373     H      0.146560000000     0.686730000000     0.343030000000     0.0373038  
H374     H      0.137820000000     0.655000000000     0.385930000000     0.0342645  
H375     H      0.146370000000     0.568670000000     0.329940000000     0.0351245  
H376     H      0.175280000000     0.617310000000     0.382610000000     0.0338536  
H377     H      0.547340000000     0.985110000000     0.171860000000     0.0362443  
H378     H      0.049980000000     0.050430000000     0.173650000000     0.0360082  
H379     H      0.997810000000     0.545190000000     0.135460000000     0.0380821  
H380     H      0.516710000000     0.951320000000     0.209840000000     0.0370064  
H381     H      0.489890000000     0.939530000000     0.136310000000     0.0382769  
H382     H      0.463990000000     0.446930000000     0.173320000000     0.0362442  
H383     H      0.021800000000     0.555590000000     0.211360000000     0.0369975  
H384     H      0.966880000000     0.511080000000     0.172640000000     0.0351361  
H385     H      0.736990000000     0.358690000000     0.629150000000     0.0332613  
H386     H      0.810100000000     0.395190000000     0.629050000000     0.0335524  
H387     H      0.833160000000     0.443960000000     0.681800000000     0.0351885  
H388     H      0.714030000000     0.326020000000     0.671300000000     0.0367741  
H389     H      0.714170000000     0.384970000000     0.681470000000     0.0363515  
H390     H      0.735550000000     0.374280000000     0.724670000000     0.0346011  
H391     H      0.833260000000     0.385310000000     0.671000000000     0.0363677  
H392     H      0.811530000000     0.411780000000     0.724760000000     0.0347851  
H393     H      0.809730000000     0.148900000000     0.743130000000     0.0343055  
H394     H      0.737240000000     0.113190000000     0.743070000000     0.0341977  
H395     H      0.713910000000     0.133830000000     0.684110000000     0.0358792  
H396     H      0.833090000000     0.135590000000     0.705120000000     0.0367317  
H397     H      0.833190000000     0.193040000000     0.684640000000     0.0353349  
H398     H      0.811080000000     0.157140000000     0.645660000000     0.0336507  
H399     H      0.713730000000     0.076560000000     0.705100000000     0.0367334  
H400     H      0.736260000000     0.119850000000     0.645400000000     0.0344222  
H401     H      0.978040000000     0.377910000000     0.719450000000     0.0347471  
H402     H      0.551350000000     0.413620000000     0.719840000000     0.0339418  
H403     H      0.574400000000     0.391270000000     0.662400000000     0.036512   
H404     H      0.955460000000     0.390550000000     0.679670000000     0.0361452  
H405     H      0.955130000000     0.332360000000     0.662660000000     0.0349566  
H406     H      0.977530000000     0.367150000000     0.622490000000     0.0357353  
H407     H      0.574770000000     0.449090000000     0.680480000000     0.0364783  
H408     H      0.552020000000     0.404240000000     0.622570000000     0.0350288  
H409     H      0.552330000000     0.154980000000     0.713270000000     0.0341199  
H410     H      0.977990000000     0.117620000000     0.713050000000     0.0346336  
H411     H      0.955310000000     0.139650000000     0.654930000000     0.0363315  
H412     H      0.575080000000     0.142210000000     0.673770000000     0.0360595  
H413     H      0.574650000000     0.199620000000     0.655170000000     0.0368711  
H414     H      0.551880000000     0.163980000000     0.616010000000     0.0339955  
H415     H      0.955790000000     0.082230000000     0.673440000000     0.0351086  
H416     H      0.978590000000     0.127160000000     0.615750000000     0.0358955  
H417     H      0.816230000000     0.277530000000     0.846360000000     0.0367299  
H418     H      0.751260000000     0.213690000000     0.844000000000     0.0356661  
H419     H      0.704970000000     0.221660000000     0.882380000000     0.0370044  
H420     H      0.821290000000     0.312460000000     0.808990000000     0.0375093  
H421     H      0.808060000000     0.324220000000     0.883920000000     0.0377429  
H422     H      0.773410000000     0.319480000000     0.845910000000     0.0363512  
H423     H      0.717420000000     0.210730000000     0.806460000000     0.0375831  
H424     H      0.710130000000     0.256740000000     0.845670000000     0.035041   
H425     H      0.780860000000     0.553550000000     0.869170000000     0.0364238  
H426     H      0.716120000000     0.486990000000     0.865720000000     0.0353798  
H427     H      0.724730000000     0.448250000000     0.815100000000     0.0373962  
H428     H      0.814550000000     0.055350000000     0.900540000000     0.0368069  
H429     H      0.826480000000     0.050630000000     0.823070000000     0.037286   
H430     H      0.822310000000     0.012610000000     0.854360000000     0.0362928  
H431     H      0.715850000000     0.450120000000     0.894830000000     0.038205   
H432     H      0.759780000000     0.949330000000     0.847600000000     0.0346421  
H433     H      0.896890000000     0.307120000000     0.960270000000     0.0339494  
H434     H      0.860000000000     0.233390000000     0.955750000000     0.0351764  
H435     H      0.885580000000     0.208650000000     0.007330000000     0.0369674  
H436     H      0.886130000000     0.327420000000     0.004460000000     0.0354842  
H437     H      0.945230000000     0.327010000000     0.014080000000     0.0354391  
H438     H      0.911970000000     0.302620000000     0.055370000000     0.0344319  
H439     H      0.826670000000     0.209120000000     0.997110000000     0.0373291  
H440     H      0.874960000000     0.229520000000     0.051140000000     0.0343664  
H441     H      0.651990000000     0.302590000000     0.052210000000     0.0338014  
H442     H      0.615440000000     0.230170000000     0.048030000000     0.0340741  
H443     H      0.578880000000     0.209810000000     0.981940000000     0.0371849  
H444     H      0.692830000000     0.327080000000     0.020050000000     0.0342129  
H445     H      0.638500000000     0.328400000000     0.988940000000     0.0358852  
H446     H      0.655970000000     0.306520000000     0.954280000000     0.0344864  
H447     H      0.633070000000     0.208460000000     0.013240000000     0.0365552  
H448     H      0.619910000000     0.234650000000     0.950050000000     0.034573   
H449     H      0.019990000000     0.320300000000     0.833450000000     0.034862   
H450     H      0.956700000000     0.256020000000     0.835200000000     0.035739   
H451     H      0.962980000000     0.213610000000     0.788280000000     0.0378033  
H452     H      0.556900000000     0.324250000000     0.867080000000     0.0375382  
H453     H      0.566180000000     0.315730000000     0.789560000000     0.0365209  
H454     H      0.563610000000     0.279610000000     0.823100000000     0.0366645  
H455     H      0.955530000000     0.220250000000     0.867540000000     0.0376327  
H456     H      0.498990000000     0.215050000000     0.820810000000     0.0350526  
H457     H      0.865800000000     0.460940000000     0.059900000000     0.0342189  
H458     H      0.901680000000     0.034480000000     0.059910000000     0.0356393  
H459     H      0.940220000000     0.057200000000     0.995450000000     0.0381351  
H460     H      0.825510000000     0.438500000000     0.026560000000     0.0344775  
H461     H      0.880030000000     0.438110000000     0.994510000000     0.035702   
H462     H      0.863580000000     0.462170000000     0.961900000000     0.034628   
H463     H      0.885240000000     0.057730000000     0.025820000000     0.037101   
H464     H      0.900150000000     0.034150000000     0.961770000000     0.034336   
H465     H      0.625870000000     0.462850000000     0.973320000000     0.0334503  
H466     H      0.659920000000     0.037730000000     0.979740000000     0.0345868  
H467     H      0.630280000000     0.055930000000     0.033940000000     0.0370899  
H468     H      0.633350000000     0.439040000000     0.016340000000     0.0357327  
H469     H      0.573150000000     0.437790000000     0.021380000000     0.0343262  
H470     H      0.602470000000     0.458360000000     0.067050000000     0.0338512  
H471     H      0.690280000000     0.057430000000     0.024860000000     0.0368657  
H472     H      0.638600000000     0.030720000000     0.074580000000     0.03456    
H473     H      0.961850000000     0.497460000000     0.837260000000     0.037965   
H474     H      0.026330000000     0.062150000000     0.839170000000     0.0330601  
H475     H      0.567910000000     0.054830000000     0.886540000000     0.037314   
H476     H      0.959260000000     0.463390000000     0.800080000000     0.0382575  
H477     H      0.967960000000     0.449440000000     0.875110000000     0.0365199  
H478     H      0.505960000000     0.456870000000     0.841030000000     0.036566   
H479     H      0.563380000000     0.065320000000     0.807110000000     0.0373641  
H480     H      0.569170000000     0.021550000000     0.851770000000     0.0347742  
H481     H      0.780310000000     0.207800000000     0.508330000000     0.0359887  
H482     H      0.717510000000     0.208930000000     0.506590000000     0.0349047  
H483     H      0.723410000000     0.258820000000     0.551380000000     0.0375373  
H484     H      0.817300000000     0.240090000000     0.474380000000     0.0376162  
H485     H      0.826480000000     0.258670000000     0.551620000000     0.0368762  
H486     H      0.824050000000     0.291900000000     0.517260000000     0.0367197  
H487     H      0.715290000000     0.242430000000     0.473070000000     0.0372724  
H488     H      0.759530000000     0.292250000000     0.518100000000     0.0352849  
H489     H      0.813370000000     0.254010000000     0.181840000000     0.0366928  
H490     H      0.812090000000     0.316720000000     0.192180000000     0.0346956  
H491     H      0.765770000000     0.314490000000     0.144440000000     0.0382277  
H492     H      0.779760000000     0.214810000000     0.211890000000     0.0375424  
H493     H      0.763360000000     0.211340000000     0.134610000000     0.036763   
H494     H      0.729030000000     0.211810000000     0.169190000000     0.0368416  
H495     H      0.775770000000     0.314680000000     0.224650000000     0.037534   
H496     H      0.729350000000     0.276880000000     0.173010000000     0.034751   
H497     H      0.814240000000     0.548590000000     0.524710000000     0.0363673  
H498     H      0.750900000000     0.048200000000     0.531700000000     0.0349925  
H499     H      0.702840000000     0.996400000000     0.492610000000     0.0381223  
H500     H      0.821010000000     0.517920000000     0.559060000000     0.0372995  
H501     H      0.804880000000     0.494860000000     0.483750000000     0.0371523  
H502     H      0.771690000000     0.464110000000     0.522310000000     0.0365056  
H503     H      0.717670000000     0.017080000000     0.569480000000     0.0372683  
H504     H      0.707120000000     0.964430000000     0.526660000000     0.0355944  
H505     H      0.701320000000     0.499380000000     0.199190000000     0.0361337  
H506     H      0.701430000000     0.436020000000     0.200850000000     0.034517   
H507     H      0.749310000000     0.440880000000     0.153520000000     0.0382634  
H508     H      0.734270000000     0.035870000000     0.231810000000     0.0373483  
H509     H      0.753520000000     0.045740000000     0.155200000000     0.0372976  
H510     H      0.786310000000     0.041800000000     0.189110000000     0.0371759  
H511     H      0.735820000000     0.433930000000     0.233130000000     0.0371721  
H512     H      0.784780000000     0.975970000000     0.185120000000     0.0353372  
H513     H      0.556340000000     0.293510000000     0.491430000000     0.03629    
H514     H      0.992660000000     0.293840000000     0.495210000000     0.0369697  
H515     H      0.944400000000     0.239260000000     0.459520000000     0.0378749  
H516     H      0.562320000000     0.264420000000     0.529200000000     0.0369898  
H517     H      0.546750000000     0.237690000000     0.455110000000     0.0371131  
H518     H      0.513190000000     0.209070000000     0.494670000000     0.0360861  
H519     H      0.959430000000     0.264840000000     0.534340000000     0.0376038  
H520     H      0.949940000000     0.209920000000     0.496800000000     0.0369703  
H521     H      0.885700000000     0.092330000000     0.385160000000     0.0351089  
H522     H      0.848220000000     0.129420000000     0.389550000000     0.0349048  
H523     H      0.867100000000     0.173090000000     0.330580000000     0.0336375  
H524     H      0.870330000000     0.056750000000     0.345580000000     0.0378397  
H525     H      0.927370000000     0.114660000000     0.324070000000     0.0376001  
H526     H      0.889510000000     0.101120000000     0.287650000000     0.0347069  
H527     H      0.810440000000     0.115420000000     0.352830000000     0.0368321  
H528     H      0.852260000000     0.136880000000     0.291790000000     0.0336662  
H529     H      0.602110000000     0.382480000000     0.401940000000     0.0344333  
H530     H      0.638670000000     0.346570000000     0.398020000000     0.0338349  
H531     H      0.620820000000     0.308050000000     0.334110000000     0.0372386  
H532     H      0.617110000000     0.422000000000     0.368250000000     0.0349165  
H533     H      0.560570000000     0.366560000000     0.340800000000     0.0367884  
H534     H      0.598640000000     0.383770000000     0.304040000000     0.0339378  
H535     H      0.677210000000     0.363290000000     0.361890000000     0.0359935  
H536     H      0.636290000000     0.347410000000     0.299930000000     0.0347559  
H537     H      0.049380000000     0.307300000000     0.162980000000     0.0369398  
H538     H      0.549540000000     0.244250000000     0.153900000000     0.0344885  
H539     H      0.499370000000     0.198050000000     0.196270000000     0.0376351  
H540     H      0.017890000000     0.313720000000     0.129440000000     0.0370528  
H541     H      0.995800000000     0.298410000000     0.204920000000     0.0378312  
H542     H      0.964410000000     0.264700000000     0.167290000000     0.0363332  
H543     H      0.516430000000     0.210950000000     0.117760000000     0.0369926  
H544     H      0.465560000000     0.200870000000     0.163720000000     0.0348892  
H545     H      0.571270000000     0.051840000000     0.517520000000     0.0365072  
H546     H      0.004840000000     0.049370000000     0.515130000000     0.0277332  
H547     H      0.964860000000     0.500170000000     0.463260000000     0.039362   
H548     H      0.572840000000     0.017180000000     0.549930000000     0.0369393  
H549     H      0.569420000000     0.004740000000     0.471050000000     0.0366564  
H550     H      0.530920000000     0.467160000000     0.501520000000     0.0365812  
H551     H      0.967780000000     0.512510000000     0.542510000000     0.036659   
H552     H      0.966050000000     0.465740000000     0.495850000000     0.0359805  
H553     H      0.916560000000     0.362700000000     0.296380000000     0.0345247  
H554     H      0.878700000000     0.398180000000     0.300510000000     0.0349577  
H555     H      0.838310000000     0.377810000000     0.363500000000     0.0365007  
H556     H      0.955040000000     0.377090000000     0.332060000000     0.038014   
H557     H      0.899070000000     0.319590000000     0.356080000000     0.0341196  
H558     H      0.913900000000     0.356360000000     0.394100000000     0.0346729  
H559     H      0.893900000000     0.434940000000     0.338730000000     0.0374756  
H560     H      0.877350000000     0.391800000000     0.398350000000     0.0343751  
H561     H      0.617450000000     0.138300000000     0.291020000000     0.0334127  
H562     H      0.654110000000     0.101790000000     0.287370000000     0.0343861  
H563     H      0.705270000000     0.127620000000     0.337420000000     0.0368659  
H564     H      0.586680000000     0.128840000000     0.335460000000     0.0361831  
H565     H      0.646530000000     0.187500000000     0.342710000000     0.037425   
H566     H      0.637640000000     0.155780000000     0.385660000000     0.0344126  
H567     H      0.645750000000     0.069170000000     0.329140000000     0.0353937  
H568     H      0.674650000000     0.117570000000     0.382200000000     0.0339241  
H569     H      0.048920000000     0.485870000000     0.170790000000     0.0368624  
H570     H      0.551310000000     0.550770000000     0.173440000000     0.0352263  
H571     H      0.496030000000     0.045000000000     0.136720000000     0.0370095  
H572     H      0.018700000000     0.451590000000     0.208780000000     0.0367065  
H573     H      0.992060000000     0.439840000000     0.134920000000     0.038487   
H574     H      0.961930000000     0.946590000000     0.174580000000     0.0354456  
H575     H      0.521180000000     0.055890000000     0.212060000000     0.0368916  
H576     H      0.465550000000     0.011140000000     0.174440000000     0.0355018  
H577     H      0.736510000000     0.858140000000     0.629040000000     0.0332417  
H578     H      0.809620000000     0.894860000000     0.628970000000     0.0336085  
H579     H      0.832640000000     0.943690000000     0.681660000000     0.035202   
H580     H      0.713630000000     0.825610000000     0.671340000000     0.0367755  
H581     H      0.713650000000     0.884580000000     0.681080000000     0.0363082  
H582     H      0.734990000000     0.874030000000     0.724450000000     0.0345958  
H583     H      0.832860000000     0.885130000000     0.670950000000     0.0363804  
H584     H      0.810960000000     0.911540000000     0.724640000000     0.034756   
H585     H      0.810300000000     0.649380000000     0.743660000000     0.0343609  
H586     H      0.737860000000     0.613640000000     0.743910000000     0.0342182  
H587     H      0.714180000000     0.633770000000     0.684760000000     0.0358662  
H588     H      0.833590000000     0.635960000000     0.705690000000     0.0367741  
H589     H      0.833470000000     0.693260000000     0.684910000000     0.035286   
H590     H      0.811350000000     0.657180000000     0.646150000000     0.0335791  
H591     H      0.714220000000     0.576740000000     0.706280000000     0.0367747  
H592     H      0.736530000000     0.619670000000     0.646180000000     0.0343811  
H593     H      0.978690000000     0.877970000000     0.720240000000     0.0347888  
H594     H      0.551960000000     0.913680000000     0.720330000000     0.0338784  
H595     H      0.574760000000     0.891440000000     0.662540000000     0.0364565  
H596     H      0.955950000000     0.890810000000     0.680870000000     0.0361547  
H597     H      0.955490000000     0.832720000000     0.663070000000     0.0350104  
H598     H      0.977890000000     0.867740000000     0.623150000000     0.0357907  
H599     H      0.575270000000     0.949280000000     0.681090000000     0.0363562  
H600     H      0.552370000000     0.904640000000     0.622980000000     0.0349737  
H601     H      0.551960000000     0.654570000000     0.712110000000     0.0341174  
H602     H      0.977520000000     0.617220000000     0.711630000000     0.0345443  
H603     H      0.955150000000     0.639810000000     0.653810000000     0.0363806  
H604     H      0.574730000000     0.641970000000     0.672450000000     0.0360964  
H605     H      0.574480000000     0.699540000000     0.654360000000     0.0369054  
H606     H      0.551700000000     0.664140000000     0.614930000000     0.0340173  
H607     H      0.955460000000     0.582170000000     0.671640000000     0.0350237  
H608     H      0.978440000000     0.627520000000     0.614450000000     0.0359164  
H609     H      0.816170000000     0.777550000000     0.846570000000     0.0367327  
H610     H      0.751280000000     0.713630000000     0.844210000000     0.0356796  
H611     H      0.704900000000     0.721460000000     0.882600000000     0.0369983  
H612     H      0.821150000000     0.812450000000     0.809220000000     0.0374922  
H613     H      0.807880000000     0.824140000000     0.884170000000     0.0377194  
H614     H      0.773200000000     0.819330000000     0.846170000000     0.0363171  
H615     H      0.717400000000     0.710590000000     0.806680000000     0.0376059  
H616     H      0.710000000000     0.756520000000     0.845910000000     0.0350496  
H617     H      0.778820000000     0.053250000000     0.866220000000     0.0366419  
H618     H      0.714720000000     0.987200000000     0.863680000000     0.0353991  
H619     H      0.724010000000     0.947930000000     0.814540000000     0.0373175  
H620     H      0.816770000000     0.553960000000     0.901620000000     0.0364889  
H621     H      0.827030000000     0.550900000000     0.823620000000     0.0372231  
H622     H      0.824080000000     0.512660000000     0.853050000000     0.0359655  
H623     H      0.714120000000     0.950690000000     0.893960000000     0.0381706  
H624     H      0.760870000000     0.449210000000     0.847040000000     0.0346469  
H625     H      0.896670000000     0.806990000000     0.960260000000     0.0339235  
H626     H      0.859760000000     0.733250000000     0.955660000000     0.0352072  
H627     H      0.885490000000     0.708470000000     0.006970000000     0.0369327  
H628     H      0.886050000000     0.827250000000     0.004620000000     0.0353588  
H629     H      0.945180000000     0.826820000000     0.013800000000     0.0355749  
H630     H      0.912080000000     0.802440000000     0.055230000000     0.0344348  
H631     H      0.826560000000     0.708960000000     0.997130000000     0.0373894  
H632     H      0.875020000000     0.729300000000     0.050940000000     0.0343408  
H633     H      0.651800000000     0.802390000000     0.052290000000     0.0338611  
H634     H      0.615280000000     0.729990000000     0.048170000000     0.0340899  
H635     H      0.578830000000     0.709590000000     0.982000000000     0.0371656  
H636     H      0.692710000000     0.826880000000     0.020230000000     0.0343836  
H637     H      0.638430000000     0.828180000000     0.988890000000     0.0357908  
H638     H      0.655970000000     0.806270000000     0.954360000000     0.0344371  
H639     H      0.632980000000     0.708260000000     0.013500000000     0.0365467  
H640     H      0.619910000000     0.734400000000     0.950190000000     0.0345385  
H641     H      0.020140000000     0.820140000000     0.833240000000     0.0348514  
H642     H      0.956780000000     0.755880000000     0.834950000000     0.0357561  
H643     H      0.963020000000     0.713520000000     0.787920000000     0.0378061  
H644     H      0.557020000000     0.824010000000     0.866870000000     0.0374911  
H645     H      0.566320000000     0.815530000000     0.789340000000     0.0365298  
H646     H      0.563650000000     0.779340000000     0.822840000000     0.0366563  
H647     H      0.955590000000     0.720070000000     0.867230000000     0.0376659  
H648     H      0.498990000000     0.714850000000     0.820430000000     0.0350451  
H649     H      0.864260000000     0.961300000000     0.059200000000     0.0341373  
H650     H      0.902860000000     0.534210000000     0.060940000000     0.0352353  
H651     H      0.940580000000     0.556750000000     0.995660000000     0.0381417  
H652     H      0.824500000000     0.939010000000     0.025040000000     0.0346396  
H653     H      0.879400000000     0.938500000000     0.994510000000     0.0356674  
H654     H      0.863510000000     0.962630000000     0.961150000000     0.0344971  
H655     H      0.886090000000     0.557140000000     0.027010000000     0.0371217  
H656     H      0.900560000000     0.534000000000     0.962220000000     0.0340287  
H657     H      0.623580000000     0.963270000000     0.973960000000     0.0334027  
H658     H      0.663260000000     0.537940000000     0.978540000000     0.0341783  
H659     H      0.631430000000     0.555890000000     0.029310000000     0.0369864  
H660     H      0.632370000000     0.939310000000     0.015680000000     0.0356563  
H661     H      0.572190000000     0.937720000000     0.024080000000     0.0344691  
H662     H      0.602820000000     0.958330000000     0.068720000000     0.0338409  
H663     H      0.691230000000     0.556880000000     0.025630000000     0.036913   
H664     H      0.638140000000     0.531670000000     0.072480000000     0.0342022  
H665     H      0.961880000000     0.997230000000     0.837230000000     0.0376788  
H666     H      0.025720000000     0.561940000000     0.838560000000     0.0330881  
H667     H      0.567940000000     0.554380000000     0.884660000000     0.0372976  
H668     H      0.960550000000     0.963080000000     0.801270000000     0.0381256  
H669     H      0.968050000000     0.950030000000     0.876640000000     0.0364598  
H670     H      0.506310000000     0.956560000000     0.843850000000     0.0362595  
H671     H      0.562530000000     0.565490000000     0.805690000000     0.0373256  
H672     H      0.568670000000     0.521250000000     0.849160000000     0.0347897  
H673     H      0.780470000000     0.707750000000     0.508560000000     0.0359688  
H674     H      0.717510000000     0.708570000000     0.506840000000     0.0349147  
H675     H      0.723170000000     0.758360000000     0.551620000000     0.0375317  
H676     H      0.817380000000     0.740140000000     0.474610000000     0.0376363  
H677     H      0.826500000000     0.758720000000     0.551840000000     0.0368782  
H678     H      0.823890000000     0.791860000000     0.517480000000     0.0367189  
H679     H      0.715100000000     0.741950000000     0.473310000000     0.0373143  
H680     H      0.759210000000     0.791890000000     0.518320000000     0.0352744  
H681     H      0.813420000000     0.754090000000     0.182110000000     0.0367374  
H682     H      0.811840000000     0.816660000000     0.192450000000     0.0346834  
H683     H      0.765470000000     0.814220000000     0.144660000000     0.0382485  
H684     H      0.779890000000     0.714830000000     0.212140000000     0.0375832  
H685     H      0.763510000000     0.711290000000     0.134850000000     0.036712   
H686     H      0.729090000000     0.711610000000     0.169420000000     0.0368438  
H687     H      0.775420000000     0.814430000000     0.224890000000     0.0375279  
H688     H      0.729120000000     0.776540000000     0.173200000000     0.0347833  
H689     H      0.813910000000     0.047950000000     0.523900000000     0.036296   
H690     H      0.751160000000     0.549090000000     0.533350000000     0.0345846  
H691     H      0.703690000000     0.497880000000     0.493430000000     0.0383204  
H692     H      0.820630000000     0.017390000000     0.558480000000     0.0373103  
H693     H      0.804540000000     0.994100000000     0.483200000000     0.0371412  
H694     H      0.771370000000     0.963480000000     0.521860000000     0.0364932  
H695     H      0.717950000000     0.517200000000     0.570380000000     0.0373264  
H696     H      0.706940000000     0.464900000000     0.526710000000     0.0352025  
H697     H      0.701590000000     0.999530000000     0.197530000000     0.0360537  
H698     H      0.701360000000     0.936330000000     0.199740000000     0.0344936  
H699     H      0.749250000000     0.941370000000     0.152350000000     0.0382507  
H700     H      0.734910000000     0.535800000000     0.232470000000     0.037311   
H701     H      0.752410000000     0.544550000000     0.155630000000     0.0370732  
H702     H      0.786400000000     0.542040000000     0.188810000000     0.0368682  
H703     H      0.735670000000     0.934150000000     0.232030000000     0.0372134  
H704     H      0.784850000000     0.475730000000     0.186070000000     0.0354222  
H705     H      0.556430000000     0.793890000000     0.491080000000     0.0362301  
H706     H      0.992810000000     0.794270000000     0.494900000000     0.0369479  
H707     H      0.944480000000     0.739660000000     0.459320000000     0.0378819  
H708     H      0.562450000000     0.764840000000     0.528870000000     0.03699    
H709     H      0.546790000000     0.738010000000     0.454840000000     0.0370957  
H710     H      0.513270000000     0.709450000000     0.494460000000     0.0360909  
H711     H      0.959600000000     0.765330000000     0.534090000000     0.0376236  
H712     H      0.950020000000     0.710340000000     0.496640000000     0.0369837  
H713     H      0.885700000000     0.592590000000     0.385580000000     0.0351006  
H714     H      0.848140000000     0.629600000000     0.389810000000     0.0348844  
H715     H      0.866910000000     0.673070000000     0.330650000000     0.0335858  
H716     H      0.870280000000     0.556840000000     0.346210000000     0.0377953  
H717     H      0.927210000000     0.614670000000     0.324310000000     0.0376263  
H718     H      0.889250000000     0.600970000000     0.288010000000     0.0346692  
H719     H      0.810300000000     0.615430000000     0.353150000000     0.0368953  
H720     H      0.852000000000     0.636740000000     0.292020000000     0.0336594  
H721     H      0.602180000000     0.882630000000     0.401150000000     0.0343471  
H722     H      0.638700000000     0.846630000000     0.397090000000     0.0338525  
H723     H      0.620640000000     0.808030000000     0.333230000000     0.0372059  
H724     H      0.617110000000     0.922080000000     0.367340000000     0.0348718  
H725     H      0.560460000000     0.866590000000     0.340190000000     0.0368418  
H726     H      0.598400000000     0.883710000000     0.303260000000     0.0340076  
H727     H      0.677120000000     0.863280000000     0.360810000000     0.0360514  
H728     H      0.636010000000     0.847350000000     0.299020000000     0.0347391  
H729     H      0.049070000000     0.807060000000     0.162800000000     0.0369379  
H730     H      0.549260000000     0.744000000000     0.153770000000     0.0345105  
H731     H      0.499040000000     0.697810000000     0.196080000000     0.03763    
H732     H      0.017640000000     0.813470000000     0.129160000000     0.0370491  
H733     H      0.995410000000     0.798140000000     0.204590000000     0.0378702  
H734     H      0.964100000000     0.764420000000     0.166910000000     0.0363212  
H735     H      0.516200000000     0.710710000000     0.117580000000     0.0370212  
H736     H      0.465270000000     0.700620000000     0.163450000000     0.0348645  
H737     H      0.570850000000     0.550790000000     0.515350000000     0.0365369  
H738     H      0.004730000000     0.548360000000     0.512450000000     0.0280413  
H739     H      0.966060000000     0.003110000000     0.464580000000     0.0400881  
H740     H      0.572800000000     0.516970000000     0.548970000000     0.0370272  
H741     H      0.568580000000     0.501980000000     0.470510000000     0.0363852  
H742     H      0.531710000000     0.968400000000     0.500400000000     0.0365863  
H743     H      0.967810000000     0.012650000000     0.544130000000     0.0366866  
H744     H      0.966100000000     0.967060000000     0.495060000000     0.035728   
H745     H      0.916670000000     0.863750000000     0.297460000000     0.0345635  
H746     H      0.878590000000     0.899170000000     0.301750000000     0.0348836  
H747     H      0.837570000000     0.877720000000     0.364070000000     0.0365006  
H748     H      0.954870000000     0.877920000000     0.333510000000     0.0381207  
H749     H      0.898930000000     0.820120000000     0.356650000000     0.0341667  
H750     H      0.913240000000     0.856520000000     0.395100000000     0.0346469  
H751     H      0.893380000000     0.935380000000     0.340670000000     0.0372896  
H752     H      0.876220000000     0.891500000000     0.399470000000     0.0343125  
H753     H      0.617830000000     0.637540000000     0.291240000000     0.0334756  
H754     H      0.654640000000     0.601010000000     0.287860000000     0.0343542  
H755     H      0.705840000000     0.627390000000     0.337780000000     0.0369083  
H756     H      0.586950000000     0.628000000000     0.335580000000     0.0362384  
H757     H      0.646560000000     0.686730000000     0.343030000000     0.037427   
H758     H      0.637820000000     0.655000000000     0.385930000000     0.0343878  
H759     H      0.646370000000     0.568670000000     0.329940000000     0.0351528  
H760     H      0.675280000000     0.617310000000     0.382610000000     0.0338624  
H761     H      0.047340000000     0.985110000000     0.171860000000     0.0366377  
H762     H      0.549980000000     0.050430000000     0.173650000000     0.0354253  
H763     H      0.497810000000     0.545190000000     0.135460000000     0.0370873  
H764     H      0.016710000000     0.951320000000     0.209840000000     0.0365344  
H765     H      0.989890000000     0.939530000000     0.136310000000     0.038521   
H766     H      0.963990000000     0.446930000000     0.173320000000     0.0358868  
H767     H      0.521790000000     0.555590000000     0.211360000000     0.0369472  
H768     H      0.466880000000     0.511080000000     0.172640000000     0.03534    
N1       N      0.273670000000     0.417950000000     0.685690000000    -0.179958   
N2       N      0.273660000000     0.352140000000     0.669880000000    -0.180028   
N3       N      0.273550000000     0.166710000000     0.680990000000    -0.17988    
N4       N      0.273380000000     0.102630000000     0.706210000000    -0.17986    
N5       N      0.514740000000     0.358440000000     0.659610000000    -0.179938   
N6       N      0.515180000000     0.423260000000     0.681840000000    -0.179947   
N7       N      0.514920000000     0.173020000000     0.653250000000    -0.179977   
N8       N      0.515480000000     0.108880000000     0.676430000000    -0.180049   
N9       N      0.255800000000     0.273680000000     0.886950000000    -0.180136   
N10      N      0.270870000000     0.260310000000     0.804180000000    -0.180115   
N11      N      0.276820000000     0.499280000000     0.815460000000    -0.180931   
N12      N      0.264470000000     0.503650000000     0.902140000000    -0.180758   
N13      N      0.418950000000     0.267740000000     0.012410000000    -0.179801   
N14      N      0.352840000000     0.268350000000     0.998450000000    -0.179518   
N15      N      0.105360000000     0.269160000000     0.983950000000    -0.180247   
N16      N      0.166190000000     0.267670000000     0.018670000000    -0.180205   
N17      N      0.516070000000     0.263420000000     0.784950000000    -0.179263   
N18      N      0.505240000000     0.273260000000     0.871400000000    -0.179109   
N19      N      0.413710000000     0.497420000000     0.993850000000    -0.18019    
N20      N      0.352670000000     0.497950000000     0.029470000000    -0.180336   
N21      N      0.098550000000     0.496740000000     0.027010000000    -0.180177   
N22      N      0.166250000000     0.498350000000     0.017590000000    -0.179797   
N23      N      0.018980000000     0.001110000000     0.885530000000    -0.182878   
N24      N      0.010610000000     0.015590000000     0.800400000000    -0.181702   
N25      N      0.276290000000     0.261200000000     0.555210000000    -0.180821   
N26      N      0.265720000000     0.240030000000     0.469860000000    -0.180836   
N27      N      0.261400000000     0.261530000000     0.135540000000    -0.179471   
N28      N      0.279820000000     0.265500000000     0.222360000000    -0.179756   
N29      N      0.252450000000     0.493170000000     0.484970000000    -0.17996    
N30      N      0.270560000000     0.519220000000     0.568550000000    -0.180399   
N31      N      0.254590000000     0.494650000000     0.150830000000    -0.180291   
N32      N      0.233760000000     0.484170000000     0.236710000000    -0.180529   
N33      N      0.494490000000     0.236450000000     0.453600000000    -0.179962   
N34      N      0.512180000000     0.266840000000     0.535380000000    -0.179871   
N35      N      0.400640000000     0.147390000000     0.325080000000    -0.178889   
N36      N      0.337170000000     0.082710000000     0.352960000000    -0.17833    
N37      N      0.087440000000     0.334170000000     0.334040000000    -0.179066   
N38      N      0.150610000000     0.396000000000     0.366990000000    -0.179251   
N39      N      0.494640000000     0.246570000000     0.204360000000    -0.179331   
N40      N      0.519170000000     0.263610000000     0.119710000000    -0.179591   
N41      N      0.516740000000     0.001270000000     0.463610000000    -0.179041   
N42      N      0.021700000000     0.017920000000     0.551180000000    -0.182196   
N43      N      0.365400000000     0.345310000000     0.360670000000    -0.181367   
N44      N      0.427600000000     0.409320000000     0.333190000000    -0.180827   
N45      N      0.179550000000     0.161000000000     0.343460000000    -0.180487   
N46      N      0.112620000000     0.095560000000     0.330890000000    -0.18082    
N47      N      0.991600000000     0.991650000000     0.132640000000    -0.182662   
N48      N      0.521440000000     0.004590000000     0.214370000000    -0.180739   
N49      N      0.273130000000     0.917620000000     0.685410000000    -0.179955   
N50      N      0.273260000000     0.851850000000     0.669880000000    -0.17994    
N51      N      0.273800000000     0.666760000000     0.681440000000    -0.17989    
N52      N      0.273890000000     0.602920000000     0.707050000000    -0.179817   
N53      N      0.515090000000     0.858720000000     0.659880000000    -0.179946   
N54      N      0.515690000000     0.923480000000     0.682740000000    -0.179969   
N55      N      0.514770000000     0.673080000000     0.652350000000    -0.179926   
N56      N      0.515120000000     0.608710000000     0.674930000000    -0.180103   
N57      N      0.255680000000     0.773530000000     0.887190000000    -0.180193   
N58      N      0.270790000000     0.760240000000     0.804410000000    -0.180088   
N59      N      0.276040000000     0.999010000000     0.814940000000    -0.181131   
N60      N      0.262630000000     0.004340000000     0.901090000000    -0.180346   
N61      N      0.418890000000     0.767550000000     0.012110000000    -0.179726   
N62      N      0.352740000000     0.768190000000     0.998540000000    -0.179506   
N63      N      0.105300000000     0.768940000000     0.983940000000    -0.180319   
N64      N      0.166080000000     0.767480000000     0.018890000000    -0.180235   
N65      N      0.516150000000     0.763280000000     0.784660000000    -0.179179   
N66      N      0.505320000000     0.773060000000     0.871130000000    -0.179021   
N67      N      0.413200000000     0.997780000000     0.993940000000    -0.180202   
N68      N      0.351710000000     0.998460000000     0.028100000000    -0.180188   
N69      N      0.097580000000     0.996680000000     0.030020000000    -0.180357   
N70      N      0.165090000000     0.998680000000     0.017220000000    -0.179706   
N71      N      0.018890000000     0.500740000000     0.883790000000    -0.183029   
N72      N      0.009760000000     0.515710000000     0.799100000000    -0.181721   
N73      N      0.276170000000     0.761000000000     0.555440000000    -0.180878   
N74      N      0.265680000000     0.739840000000     0.470090000000    -0.180791   
N75      N      0.261320000000     0.761360000000     0.135770000000    -0.179499   
N76      N      0.279730000000     0.765390000000     0.222610000000    -0.179695   
N77      N      0.252060000000     0.992330000000     0.484280000000    -0.179705   
N78      N      0.270230000000     0.018800000000     0.567800000000    -0.180102   
N79      N      0.254780000000     0.995240000000     0.150010000000    -0.180049   
N80      N      0.233560000000     0.984360000000     0.235850000000    -0.180359   
N81      N      0.494540000000     0.736780000000     0.453370000000    -0.179911   
N82      N      0.512320000000     0.767270000000     0.535100000000    -0.179809   
N83      N      0.400460000000     0.647380000000     0.325230000000    -0.178953   
N84      N      0.337080000000     0.582770000000     0.353430000000    -0.178397   
N85      N      0.087270000000     0.834170000000     0.333340000000    -0.179049   
N86      N      0.150570000000     0.896030000000     0.366020000000    -0.179236   
N87      N      0.494300000000     0.746330000000     0.204100000000    -0.179365   
N88      N      0.518950000000     0.763370000000     0.119490000000    -0.179561   
N89      N      0.515960000000     0.498940000000     0.462830000000    -0.179364   
N90      N      0.021550000000     0.517540000000     0.549840000000    -0.182072   
N91      N      0.364950000000     0.845520000000     0.361220000000    -0.181216   
N92      N      0.427240000000     0.909980000000     0.334760000000    -0.180813   
N93      N      0.179840000000     0.660520000000     0.343720000000    -0.180443   
N94      N      0.113070000000     0.594860000000     0.331200000000    -0.180839   
N95      N      0.993520000000     0.491900000000     0.131320000000    -0.182333   
N96      N      0.522580000000     0.504560000000     0.213560000000    -0.180638   
N97      N      0.773660000000     0.417950000000     0.685690000000    -0.179998   
N98      N      0.773660000000     0.352140000000     0.669880000000    -0.179966   
N99      N      0.773550000000     0.166710000000     0.680990000000    -0.179881   
N100     N      0.773380000000     0.102630000000     0.706210000000    -0.179869   
N101     N      0.014740000000     0.358440000000     0.659610000000    -0.182067   
N102     N      0.015180000000     0.423260000000     0.681840000000    -0.182047   
N103     N      0.014920000000     0.173020000000     0.653250000000    -0.182094   
N104     N      0.015480000000     0.108880000000     0.676430000000    -0.182168   
N105     N      0.755800000000     0.273680000000     0.886950000000    -0.180134   
N106     N      0.770870000000     0.260310000000     0.804180000000    -0.180095   
N107     N      0.776820000000     0.499280000000     0.815460000000    -0.180911   
N108     N      0.764470000000     0.503650000000     0.902140000000    -0.180761   
N109     N      0.918950000000     0.267740000000     0.012410000000    -0.179499   
N110     N      0.852840000000     0.268350000000     0.998450000000    -0.179488   
N111     N      0.605360000000     0.269160000000     0.983950000000    -0.179975   
N112     N      0.666190000000     0.267670000000     0.018670000000    -0.180195   
N113     N      0.016070000000     0.263420000000     0.784950000000    -0.181293   
N114     N      0.005240000000     0.273260000000     0.871400000000    -0.18143    
N115     N      0.913710000000     0.497420000000     0.993850000000    -0.179904   
N116     N      0.852680000000     0.497950000000     0.029470000000    -0.180218   
N117     N      0.598550000000     0.496740000000     0.027010000000    -0.179969   
N118     N      0.666250000000     0.498350000000     0.017590000000    -0.179796   
N119     N      0.518980000000     0.001110000000     0.885530000000    -0.17975    
N120     N      0.510600000000     0.015590000000     0.800400000000    -0.179996   
N121     N      0.776280000000     0.261200000000     0.555210000000    -0.180808   
N122     N      0.765720000000     0.240030000000     0.469860000000    -0.180837   
N123     N      0.761400000000     0.261530000000     0.135540000000    -0.179452   
N124     N      0.779820000000     0.265500000000     0.222360000000    -0.179731   
N125     N      0.752450000000     0.493170000000     0.484970000000    -0.179948   
N126     N      0.770560000000     0.519220000000     0.568550000000    -0.180329   
N127     N      0.754600000000     0.494650000000     0.150830000000    -0.180265   
N128     N      0.733760000000     0.484170000000     0.236710000000    -0.180498   
N129     N      0.994490000000     0.236450000000     0.453600000000    -0.177316   
N130     N      0.012180000000     0.266840000000     0.535380000000    -0.182356   
N131     N      0.900640000000     0.147390000000     0.325080000000    -0.178646   
N132     N      0.837170000000     0.082710000000     0.352960000000    -0.178293   
N133     N      0.587440000000     0.334170000000     0.334040000000    -0.178652   
N134     N      0.650610000000     0.396000000000     0.366990000000    -0.179231   
N135     N      0.994640000000     0.246570000000     0.204360000000    -0.181057   
N136     N      0.019170000000     0.263610000000     0.119710000000    -0.179066   
N137     N      0.016740000000     0.001270000000     0.463610000000    -0.181824   
N138     N      0.521690000000     0.017920000000     0.551180000000    -0.179205   
N139     N      0.865400000000     0.345310000000     0.360670000000    -0.181336   
N140     N      0.927600000000     0.409320000000     0.333190000000    -0.180209   
N141     N      0.679550000000     0.161000000000     0.343460000000    -0.180486   
N142     N      0.612620000000     0.095560000000     0.330890000000    -0.180885   
N143     N      0.491600000000     0.991650000000     0.132640000000    -0.180822   
N144     N      0.021440000000     0.004590000000     0.214370000000    -0.179925   
N145     N      0.773130000000     0.917620000000     0.685410000000    -0.179959   
N146     N      0.773260000000     0.851850000000     0.669880000000    -0.17993    
N147     N      0.773810000000     0.666760000000     0.681440000000    -0.17986    
N148     N      0.773890000000     0.602920000000     0.707050000000    -0.179808   
N149     N      0.015090000000     0.858720000000     0.659880000000    -0.182075   
N150     N      0.015690000000     0.923480000000     0.682740000000    -0.182065   
N151     N      0.014770000000     0.673080000000     0.652350000000    -0.182035   
N152     N      0.015120000000     0.608710000000     0.674930000000    -0.182215   
N153     N      0.755680000000     0.773530000000     0.887190000000    -0.180189   
N154     N      0.770790000000     0.760240000000     0.804410000000    -0.180016   
N155     N      0.776040000000     0.999010000000     0.814940000000    -0.181134   
N156     N      0.762630000000     0.004340000000     0.901090000000    -0.180345   
N157     N      0.918890000000     0.767550000000     0.012110000000    -0.179423   
N158     N      0.852740000000     0.768190000000     0.998540000000    -0.179474   
N159     N      0.605300000000     0.768940000000     0.983940000000    -0.180051   
N160     N      0.666080000000     0.767480000000     0.018890000000    -0.180224   
N161     N      0.016150000000     0.763280000000     0.784660000000    -0.181257   
N162     N      0.005320000000     0.773060000000     0.871130000000    -0.18132    
N163     N      0.913200000000     0.997780000000     0.993940000000    -0.179929   
N164     N      0.851710000000     0.998460000000     0.028100000000    -0.180156   
N165     N      0.597580000000     0.996680000000     0.030020000000    -0.180084   
N166     N      0.665100000000     0.998680000000     0.017220000000    -0.179876   
N167     N      0.518900000000     0.500740000000     0.883790000000    -0.179954   
N168     N      0.509760000000     0.515710000000     0.799100000000    -0.180011   
N169     N      0.776170000000     0.761000000000     0.555440000000    -0.180806   
N170     N      0.765680000000     0.739840000000     0.470090000000    -0.180794   
N171     N      0.761320000000     0.761360000000     0.135770000000    -0.179479   
N172     N      0.779730000000     0.765390000000     0.222610000000    -0.179668   
N173     N      0.752060000000     0.992330000000     0.484280000000    -0.179686   
N174     N      0.770220000000     0.018800000000     0.567800000000    -0.18015    
N175     N      0.754780000000     0.995240000000     0.150010000000    -0.180021   
N176     N      0.733560000000     0.984360000000     0.235850000000    -0.180334   
N177     N      0.994540000000     0.736780000000     0.453370000000    -0.177328   
N178     N      0.012320000000     0.767270000000     0.535100000000    -0.182266   
N179     N      0.900460000000     0.647380000000     0.325230000000    -0.178729   
N180     N      0.837080000000     0.582770000000     0.353430000000    -0.178337   
N181     N      0.587270000000     0.834170000000     0.333340000000    -0.178752   
N182     N      0.650570000000     0.896030000000     0.366020000000    -0.179225   
N183     N      0.994300000000     0.746330000000     0.204100000000    -0.181067   
N184     N      0.018950000000     0.763370000000     0.119490000000    -0.179035   
N185     N      0.015960000000     0.498940000000     0.462830000000    -0.182088   
N186     N      0.521550000000     0.517540000000     0.549840000000    -0.179088   
N187     N      0.864950000000     0.845520000000     0.361220000000    -0.181238   
N188     N      0.927240000000     0.909980000000     0.334760000000    -0.180141   
N189     N      0.679840000000     0.660520000000     0.343720000000    -0.180391   
N190     N      0.613070000000     0.594860000000     0.331200000000    -0.180906   
N191     N      0.493520000000     0.491900000000     0.131320000000    -0.180518   
N192     N      0.022580000000     0.504560000000     0.213560000000    -0.179815   
O1       O      0.034450000000     0.485690000000     0.277400000000    -0.555862   
O2       O      0.036870000000     0.488570000000     0.399230000000    -0.553473   
O3       O      0.490660000000     0.441980000000     0.339140000000    -0.562582   
O4       O      0.080500000000     0.032890000000     0.336550000000    -0.562234   
O5       O      0.049680000000     0.063460000000     0.340370000000    -0.559583   
O6       O      0.459620000000     0.472310000000     0.334780000000    -0.561132   
O7       O      0.501750000000     0.016110000000     0.399150000000    -0.560536   
O8       O      0.506820000000     0.020570000000     0.278150000000    -0.562502   
O9       O      0.007910000000     0.226520000000     0.266560000000    -0.56067    
O10      O      0.011430000000     0.225120000000     0.388100000000    -0.560308   
O11      O      0.464240000000     0.180280000000     0.327370000000    -0.553681   
O12      O      0.054990000000     0.271210000000     0.327480000000    -0.552536   
O13      O      0.023840000000     0.301200000000     0.334680000000    -0.560823   
O14      O      0.433120000000     0.210610000000     0.326840000000    -0.554821   
O15      O      0.476430000000     0.251420000000     0.391190000000    -0.556935   
O16      O      0.480660000000     0.260560000000     0.270120000000    -0.555799   
O17      O      0.226090000000     0.004730000000     0.300960000000    -0.557478   
O18      O      0.230590000000     0.004150000000     0.422280000000    -0.556307   
O19      O      0.273820000000     0.049900000000     0.359760000000    -0.554248   
O20      O      0.182970000000     0.459140000000     0.364150000000    -0.555742   
O21      O      0.214190000000     0.428900000000     0.364870000000    -0.55471    
O22      O      0.304490000000     0.019450000000     0.352400000000    -0.552835   
O23      O      0.265450000000     0.477940000000     0.419430000000    -0.557142   
O24      O      0.253070000000     0.470260000000     0.298840000000    -0.557842   
O25      O      0.262240000000     0.275980000000     0.288020000000    -0.557152   
O26      O      0.252540000000     0.260700000000     0.408270000000    -0.559462   
O27      O      0.302270000000     0.312970000000     0.356080000000    -0.564749   
O28      O      0.212270000000     0.223860000000     0.341210000000    -0.56333    
O29      O      0.242960000000     0.193070000000     0.341620000000    -0.560571   
O30      O      0.333580000000     0.283180000000     0.348300000000    -0.561622   
O31      O      0.287530000000     0.234370000000     0.404930000000    -0.560635   
O32      O      0.289160000000     0.241660000000     0.283900000000    -0.558862   
O33      O      0.476320000000     0.027850000000     0.000590000000    -0.559746   
O34      O      0.065440000000     0.027270000000     0.021260000000    -0.558212   
O35      O      0.030000000000     0.029650000000     0.950860000000    -0.553087   
O36      O      0.011580000000     0.024960000000     0.070530000000    -0.562747   
O37      O      0.486110000000     0.463900000000     0.066480000000    -0.56115    
O38      O      0.495700000000     0.468300000000     0.945790000000    -0.560141   
O39      O      0.036280000000     0.466270000000     0.012110000000    -0.563973   
O40      O      0.445720000000     0.466370000000     0.000670000000    -0.557991   
O41      O      0.072750000000     0.299340000000     0.992880000000    -0.556031   
O42      O      0.481820000000     0.298750000000     0.002050000000    -0.557874   
O43      O      0.028940000000     0.296630000000     0.057920000000    -0.554687   
O44      O      0.025670000000     0.301410000000     0.936570000000    -0.551737   
O45      O      0.491070000000     0.240290000000     0.933890000000    -0.554472   
O46      O      0.502320000000     0.235570000000     0.054110000000    -0.55556    
O47      O      0.451450000000     0.237490000000     0.002770000000    -0.557407   
O48      O      0.041900000000     0.238390000000     0.985630000000    -0.564672   
O49      O      0.289430000000     0.467860000000     0.025360000000    -0.562021   
O50      O      0.198800000000     0.467960000000     0.024130000000    -0.561006   
O51      O      0.245210000000     0.470390000000     0.964260000000    -0.559306   
O52      O      0.243270000000     0.465980000000     0.085660000000    -0.558377   
O53      O      0.269750000000     0.027630000000     0.087360000000    -0.560054   
O54      O      0.278290000000     0.032070000000     0.966610000000    -0.56179    
O55      O      0.228500000000     0.029670000000     0.022970000000    -0.556177   
O56      O      0.319300000000     0.029420000000     0.030480000000    -0.55624    
O57      O      0.198850000000     0.237110000000     0.015490000000    -0.558884   
O58      O      0.289430000000     0.237510000000     0.002430000000    -0.557799   
O59      O      0.247850000000     0.234340000000     0.069410000000    -0.557464   
O60      O      0.240270000000     0.240210000000     0.948930000000    -0.558156   
O61      O      0.275160000000     0.301290000000     0.952420000000    -0.55638    
O62      O      0.274700000000     0.295380000000     0.073820000000    -0.555673   
O63      O      0.320420000000     0.298400000000     0.010410000000    -0.557481   
O64      O      0.229600000000     0.298380000000     0.015410000000    -0.5586     
O65      O      0.482040000000     0.498630000000     0.733380000000    -0.557563   
O66      O      0.487750000000     0.502940000000     0.611950000000    -0.555579   
O67      O      0.484900000000     0.455690000000     0.672750000000    -0.55963    
O68      O      0.485000000000     0.045890000000     0.674960000000    -0.560249   
O69      O      0.046670000000     0.076760000000     0.674460000000    -0.554898   
O70      O      0.046220000000     0.486340000000     0.680360000000    -0.554606   
O71      O      0.049540000000     0.030060000000     0.617080000000    -0.552978   
O72      O      0.044160000000     0.033460000000     0.738260000000    -0.554125   
O73      O      0.046140000000     0.282060000000     0.720390000000    -0.551065   
O74      O      0.044300000000     0.279460000000     0.598540000000    -0.551713   
O75      O      0.045390000000     0.325920000000     0.658720000000    -0.55705    
O76      O      0.045420000000     0.235780000000     0.659660000000    -0.556942   
O77      O      0.483810000000     0.205160000000     0.656720000000    -0.55743    
O78      O      0.483890000000     0.295420000000     0.664000000000    -0.55782    
O79      O      0.482760000000     0.252940000000     0.600160000000    -0.55812    
O80      O      0.484610000000     0.247430000000     0.721290000000    -0.556972   
O81      O      0.305310000000     0.023350000000     0.751410000000    -0.558185   
O82      O      0.302560000000     0.027660000000     0.630140000000    -0.556935   
O83      O      0.303970000000     0.070660000000     0.695320000000    -0.558482   
O84      O      0.304570000000     0.480970000000     0.687420000000    -0.559241   
O85      O      0.242930000000     0.450490000000     0.685170000000    -0.559217   
O86      O      0.242500000000     0.039690000000     0.701150000000    -0.557962   
O87      O      0.241480000000     0.501410000000     0.633390000000    -0.559936   
O88      O      0.244450000000     0.488860000000     0.753150000000    -0.56082    
O89      O      0.241580000000     0.243020000000     0.739370000000    -0.560152   
O90      O      0.244150000000     0.245940000000     0.618170000000    -0.561464   
O91      O      0.242820000000     0.199220000000     0.678300000000    -0.559643   
O92      O      0.242890000000     0.289530000000     0.678600000000    -0.559594   
O93      O      0.304520000000     0.320000000000     0.676220000000    -0.558353   
O94      O      0.304300000000     0.229760000000     0.683930000000    -0.558002   
O95      O      0.305710000000     0.272510000000     0.619860000000    -0.558368   
O96      O      0.303130000000     0.277500000000     0.741060000000    -0.556498   
O97      O      0.033670000000     0.986050000000     0.278220000000    -0.556281   
O98      O      0.036830000000     0.989830000000     0.400010000000    -0.554222   
O99      O      0.490300000000     0.942770000000     0.340470000000    -0.563029   
O100     O      0.080960000000     0.532130000000     0.336290000000    -0.561934   
O101     O      0.050100000000     0.562650000000     0.340220000000    -0.560003   
O102     O      0.459170000000     0.973010000000     0.336030000000    -0.561012   
O103     O      0.501790000000     0.514850000000     0.398470000000    -0.559434   
O104     O      0.507630000000     0.520230000000     0.277420000000    -0.561227   
O105     O      0.007610000000     0.726360000000     0.266340000000    -0.560639   
O106     O      0.011360000000     0.725280000000     0.387880000000    -0.560321   
O107     O      0.464060000000     0.680280000000     0.327350000000    -0.553843   
O108     O      0.054810000000     0.771200000000     0.327060000000    -0.55245    
O109     O      0.023670000000     0.801210000000     0.334220000000    -0.560975   
O110     O      0.432930000000     0.710600000000     0.326740000000    -0.554697   
O111     O      0.476360000000     0.751580000000     0.390930000000    -0.557003   
O112     O      0.480380000000     0.760420000000     0.269840000000    -0.555948   
O113     O      0.226020000000     0.504530000000     0.301660000000    -0.558492   
O114     O      0.230590000000     0.504380000000     0.422930000000    -0.557458   
O115     O      0.273730000000     0.549920000000     0.360280000000    -0.554139   
O116     O      0.182990000000     0.959170000000     0.363320000000    -0.555787   
O117     O      0.214150000000     0.928870000000     0.363830000000    -0.55445    
O118     O      0.304470000000     0.519510000000     0.353180000000    -0.553303   
O119     O      0.265410000000     0.977690000000     0.418560000000    -0.556107   
O120     O      0.253050000000     0.970390000000     0.297880000000    -0.556572   
O121     O      0.262010000000     0.775720000000     0.288260000000    -0.557065   
O122     O      0.252310000000     0.760360000000     0.408510000000    -0.559149   
O123     O      0.301840000000     0.812850000000     0.356380000000    -0.56435    
O124     O      0.212230000000     0.723380000000     0.341400000000    -0.563404   
O125     O      0.243260000000     0.692930000000     0.341840000000    -0.56016    
O126     O      0.333520000000     0.783410000000     0.348600000000    -0.561261   
O127     O      0.287640000000     0.734400000000     0.405170000000    -0.560698   
O128     O      0.289280000000     0.741710000000     0.284150000000    -0.558884   
O129     O      0.476890000000     0.527630000000     0.999570000000    -0.560126   
O130     O      0.066260000000     0.527260000000     0.018960000000    -0.558769   
O131     O      0.030180000000     0.529410000000     0.949080000000    -0.553077   
O132     O      0.012840000000     0.525020000000     0.069010000000    -0.562753   
O133     O      0.484730000000     0.963830000000     0.067830000000    -0.561747   
O134     O      0.495510000000     0.968550000000     0.947350000000    -0.561036   
O135     O      0.035450000000     0.966300000000     0.014270000000    -0.56337    
O136     O      0.445050000000     0.966590000000     0.001430000000    -0.557309   
O137     O      0.072680000000     0.799120000000     0.992730000000    -0.556282   
O138     O      0.481760000000     0.798550000000     0.001750000000    -0.557764   
O139     O      0.028810000000     0.796410000000     0.057690000000    -0.554432   
O140     O      0.025670000000     0.801200000000     0.936330000000    -0.551755   
O141     O      0.491070000000     0.740080000000     0.933630000000    -0.554457   
O142     O      0.502190000000     0.735340000000     0.053880000000    -0.555199   
O143     O      0.451380000000     0.737290000000     0.002450000000    -0.557464   
O144     O      0.041840000000     0.738170000000     0.985480000000    -0.564499   
O145     O      0.288460000000     0.968400000000     0.023960000000    -0.561209   
O146     O      0.197770000000     0.968400000000     0.023580000000    -0.560572   
O147     O      0.243890000000     0.970940000000     0.963240000000    -0.55809    
O148     O      0.242650000000     0.966480000000     0.084750000000    -0.556503   
O149     O      0.270400000000     0.527130000000     0.088240000000    -0.561131   
O150     O      0.279660000000     0.531520000000     0.967590000000    -0.56221    
O151     O      0.229620000000     0.529240000000     0.023440000000    -0.557178   
O152     O      0.320270000000     0.528880000000     0.031870000000    -0.557395   
O153     O      0.198750000000     0.736930000000     0.015740000000    -0.558722   
O154     O      0.289330000000     0.737350000000     0.002620000000    -0.558052   
O155     O      0.247780000000     0.734170000000     0.069640000000    -0.557337   
O156     O      0.240160000000     0.740050000000     0.949160000000    -0.558111   
O157     O      0.275050000000     0.801130000000     0.952660000000    -0.55638    
O158     O      0.274600000000     0.795210000000     0.074060000000    -0.555423   
O159     O      0.320330000000     0.798230000000     0.010620000000    -0.55748    
O160     O      0.229490000000     0.798200000000     0.015660000000    -0.558366   
O161     O      0.482680000000     0.998790000000     0.734780000000    -0.558525   
O162     O      0.488050000000     0.003180000000     0.613390000000    -0.556049   
O163     O      0.485390000000     0.955910000000     0.673990000000    -0.56003    
O164     O      0.484580000000     0.545720000000     0.673380000000    -0.560284   
O165     O      0.046240000000     0.576540000000     0.673080000000    -0.555126   
O166     O      0.046730000000     0.986570000000     0.681370000000    -0.554897   
O167     O      0.049220000000     0.529770000000     0.615870000000    -0.552443   
O168     O      0.043510000000     0.533300000000     0.737060000000    -0.55337    
O169     O      0.046240000000     0.781990000000     0.720120000000    -0.550847   
O170     O      0.044420000000     0.779720000000     0.598260000000    -0.551614   
O171     O      0.045620000000     0.826080000000     0.658660000000    -0.556913   
O172     O      0.045400000000     0.735810000000     0.659150000000    -0.556671   
O173     O      0.483780000000     0.705320000000     0.656170000000    -0.557316   
O174     O      0.484120000000     0.795680000000     0.663960000000    -0.55784    
O175     O      0.482890000000     0.753340000000     0.599890000000    -0.558242   
O176     O      0.484690000000     0.747460000000     0.720990000000    -0.556629   
O177     O      0.306000000000     0.523630000000     0.751920000000    -0.558844   
O178     O      0.303010000000     0.528070000000     0.630740000000    -0.557858   
O179     O      0.304530000000     0.570990000000     0.696030000000    -0.558567   
O180     O      0.304000000000     0.980630000000     0.687020000000    -0.559825   
O181     O      0.242360000000     0.950140000000     0.684610000000    -0.5585     
O182     O      0.243070000000     0.539990000000     0.702000000000    -0.558767   
O183     O      0.241020000000     0.001020000000     0.632630000000    -0.558503   
O184     O      0.243760000000     0.988570000000     0.752500000000    -0.56019    
O185     O      0.241510000000     0.742880000000     0.739610000000    -0.560271   
O186     O      0.244050000000     0.745670000000     0.618400000000    -0.561444   
O187     O      0.242910000000     0.699100000000     0.678630000000    -0.559561   
O188     O      0.242640000000     0.789250000000     0.678740000000    -0.559393   
O189     O      0.304280000000     0.819870000000     0.676370000000    -0.558557   
O190     O      0.304390000000     0.729820000000     0.684210000000    -0.558261   
O191     O      0.305620000000     0.772440000000     0.620080000000    -0.558516   
O192     O      0.303040000000     0.777500000000     0.741280000000    -0.556675   
O193     O      0.534450000000     0.485690000000     0.277400000000    -0.555918   
O194     O      0.536870000000     0.488570000000     0.399230000000    -0.553462   
O195     O      0.990660000000     0.441980000000     0.339140000000    -0.556371   
O196     O      0.580500000000     0.032890000000     0.336550000000    -0.563608   
O197     O      0.549680000000     0.063460000000     0.340370000000    -0.560833   
O198     O      0.959620000000     0.472310000000     0.334780000000    -0.55538    
O199     O      0.001760000000     0.016110000000     0.399150000000    -0.561913   
O200     O      0.006820000000     0.020570000000     0.278150000000    -0.562801   
O201     O      0.507910000000     0.226520000000     0.266560000000    -0.554319   
O202     O      0.511430000000     0.225120000000     0.388100000000    -0.555224   
O203     O      0.964240000000     0.180280000000     0.327370000000    -0.547682   
O204     O      0.555000000000     0.271210000000     0.327480000000    -0.553568   
O205     O      0.523840000000     0.301200000000     0.334680000000    -0.553999   
O206     O      0.933120000000     0.210610000000     0.326840000000    -0.556827   
O207     O      0.976420000000     0.251420000000     0.391190000000    -0.559604   
O208     O      0.980660000000     0.260560000000     0.270120000000    -0.558714   
O209     O      0.726090000000     0.004730000000     0.300960000000    -0.557434   
O210     O      0.730590000000     0.004150000000     0.422280000000    -0.556266   
O211     O      0.773820000000     0.049900000000     0.359760000000    -0.554252   
O212     O      0.682970000000     0.459140000000     0.364150000000    -0.555674   
O213     O      0.714190000000     0.428900000000     0.364870000000    -0.554717   
O214     O      0.804490000000     0.019450000000     0.352400000000    -0.552691   
O215     O      0.765450000000     0.477940000000     0.419430000000    -0.557091   
O216     O      0.753070000000     0.470260000000     0.298840000000    -0.557803   
O217     O      0.762240000000     0.275980000000     0.288020000000    -0.557133   
O218     O      0.752540000000     0.260700000000     0.408270000000    -0.559455   
O219     O      0.802270000000     0.312970000000     0.356080000000    -0.564732   
O220     O      0.712270000000     0.223860000000     0.341210000000    -0.563309   
O221     O      0.742960000000     0.193070000000     0.341620000000    -0.560583   
O222     O      0.833580000000     0.283180000000     0.348300000000    -0.561577   
O223     O      0.787530000000     0.234370000000     0.404930000000    -0.560625   
O224     O      0.789160000000     0.241660000000     0.283900000000    -0.558838   
O225     O      0.976320000000     0.027850000000     0.000590000000    -0.553308   
O226     O      0.565440000000     0.027270000000     0.021260000000    -0.559851   
O227     O      0.530000000000     0.029650000000     0.950860000000    -0.555539   
O228     O      0.511580000000     0.024960000000     0.070530000000    -0.556661   
O229     O      0.986110000000     0.463900000000     0.066480000000    -0.563868   
O230     O      0.995700000000     0.468300000000     0.945790000000    -0.555144   
O231     O      0.536280000000     0.466270000000     0.012110000000    -0.557617   
O232     O      0.945720000000     0.466370000000     0.000670000000    -0.559764   
O233     O      0.572750000000     0.299340000000     0.992880000000    -0.558161   
O234     O      0.981820000000     0.298750000000     0.002050000000    -0.551027   
O235     O      0.528940000000     0.296630000000     0.057920000000    -0.555691   
O236     O      0.525670000000     0.301410000000     0.936570000000    -0.55441    
O237     O      0.991070000000     0.240290000000     0.933890000000    -0.550819   
O238     O      0.002320000000     0.235570000000     0.054110000000    -0.562934   
O239     O      0.951450000000     0.237490000000     0.002770000000    -0.559505   
O240     O      0.541900000000     0.238390000000     0.985630000000    -0.557931   
O241     O      0.789430000000     0.467860000000     0.025360000000    -0.561984   
O242     O      0.698800000000     0.467960000000     0.024130000000    -0.560989   
O243     O      0.745210000000     0.470390000000     0.964260000000    -0.559307   
O244     O      0.743270000000     0.465980000000     0.085660000000    -0.558351   
O245     O      0.769750000000     0.027630000000     0.087360000000    -0.559994   
O246     O      0.778290000000     0.032070000000     0.966610000000    -0.561782   
O247     O      0.728500000000     0.029670000000     0.022970000000    -0.556121   
O248     O      0.819300000000     0.029420000000     0.030480000000    -0.556131   
O249     O      0.698850000000     0.237110000000     0.015490000000    -0.558831   
O250     O      0.789430000000     0.237510000000     0.002430000000    -0.557799   
O251     O      0.747850000000     0.234340000000     0.069410000000    -0.557441   
O252     O      0.740270000000     0.240210000000     0.948930000000    -0.558143   
O253     O      0.775160000000     0.301290000000     0.952420000000    -0.556367   
O254     O      0.774700000000     0.295380000000     0.073820000000    -0.555649   
O255     O      0.820420000000     0.298400000000     0.010410000000    -0.557441   
O256     O      0.729600000000     0.298380000000     0.015410000000    -0.558606   
O257     O      0.982040000000     0.498630000000     0.733380000000    -0.551424   
O258     O      0.987750000000     0.502940000000     0.611950000000    -0.549499   
O259     O      0.984900000000     0.455690000000     0.672750000000    -0.553517   
O260     O      0.985000000000     0.045890000000     0.674960000000    -0.554077   
O261     O      0.546670000000     0.076760000000     0.674460000000    -0.557447   
O262     O      0.546220000000     0.486340000000     0.680360000000    -0.557144   
O263     O      0.549540000000     0.030060000000     0.617080000000    -0.555485   
O264     O      0.544160000000     0.033460000000     0.738260000000    -0.556697   
O265     O      0.546140000000     0.282060000000     0.720390000000    -0.553608   
O266     O      0.544300000000     0.279460000000     0.598540000000    -0.554103   
O267     O      0.545390000000     0.325920000000     0.658720000000    -0.559588   
O268     O      0.545420000000     0.235780000000     0.659660000000    -0.559469   
O269     O      0.983810000000     0.205160000000     0.656720000000    -0.551309   
O270     O      0.983890000000     0.295420000000     0.664000000000    -0.55167    
O271     O      0.982760000000     0.252940000000     0.600160000000    -0.551921   
O272     O      0.984600000000     0.247430000000     0.721290000000    -0.550673   
O273     O      0.805310000000     0.023350000000     0.751410000000    -0.558162   
O274     O      0.802560000000     0.027660000000     0.630140000000    -0.556989   
O275     O      0.803970000000     0.070660000000     0.695320000000    -0.558506   
O276     O      0.804570000000     0.480970000000     0.687420000000    -0.559214   
O277     O      0.742930000000     0.450490000000     0.685170000000    -0.559219   
O278     O      0.742500000000     0.039690000000     0.701150000000    -0.558084   
O279     O      0.741480000000     0.501410000000     0.633390000000    -0.559851   
O280     O      0.744450000000     0.488860000000     0.753150000000    -0.560799   
O281     O      0.741580000000     0.243020000000     0.739370000000    -0.560119   
O282     O      0.744150000000     0.245940000000     0.618170000000    -0.561449   
O283     O      0.742820000000     0.199220000000     0.678300000000    -0.559638   
O284     O      0.742890000000     0.289530000000     0.678600000000    -0.559496   
O285     O      0.804530000000     0.320000000000     0.676220000000    -0.558206   
O286     O      0.804300000000     0.229760000000     0.683930000000    -0.557994   
O287     O      0.805710000000     0.272510000000     0.619860000000    -0.558341   
O288     O      0.803130000000     0.277500000000     0.741060000000    -0.556435   
O289     O      0.533670000000     0.986050000000     0.278220000000    -0.55635    
O290     O      0.536830000000     0.989830000000     0.400010000000    -0.554172   
O291     O      0.990300000000     0.942770000000     0.340470000000    -0.556774   
O292     O      0.580960000000     0.532130000000     0.336290000000    -0.563326   
O293     O      0.550100000000     0.562650000000     0.340220000000    -0.561215   
O294     O      0.959160000000     0.973010000000     0.336030000000    -0.555019   
O295     O      0.001790000000     0.514850000000     0.398470000000    -0.560657   
O296     O      0.007630000000     0.520230000000     0.277420000000    -0.561542   
O297     O      0.507610000000     0.726360000000     0.266340000000    -0.554348   
O298     O      0.511360000000     0.725280000000     0.387880000000    -0.555228   
O299     O      0.964060000000     0.680280000000     0.327350000000    -0.54779    
O300     O      0.554800000000     0.771200000000     0.327060000000    -0.553941   
O301     O      0.523670000000     0.801210000000     0.334220000000    -0.554257   
O302     O      0.932930000000     0.710600000000     0.326740000000    -0.556704   
O303     O      0.976360000000     0.751580000000     0.390930000000    -0.559851   
O304     O      0.980380000000     0.760420000000     0.269840000000    -0.558867   
O305     O      0.726020000000     0.504530000000     0.301660000000    -0.558464   
O306     O      0.730590000000     0.504380000000     0.422930000000    -0.557434   
O307     O      0.773730000000     0.549920000000     0.360280000000    -0.554138   
O308     O      0.682990000000     0.959170000000     0.363320000000    -0.555734   
O309     O      0.714150000000     0.928870000000     0.363830000000    -0.554454   
O310     O      0.804470000000     0.519510000000     0.353180000000    -0.553172   
O311     O      0.765410000000     0.977690000000     0.418560000000    -0.556048   
O312     O      0.753050000000     0.970390000000     0.297880000000    -0.556525   
O313     O      0.762010000000     0.775720000000     0.288260000000    -0.557018   
O314     O      0.752310000000     0.760360000000     0.408510000000    -0.559115   
O315     O      0.801840000000     0.812850000000     0.356380000000    -0.564346   
O316     O      0.712220000000     0.723380000000     0.341400000000    -0.56315    
O317     O      0.743260000000     0.692930000000     0.341840000000    -0.560159   
O318     O      0.833510000000     0.783410000000     0.348600000000    -0.561447   
O319     O      0.787640000000     0.734400000000     0.405170000000    -0.560714   
O320     O      0.789280000000     0.741710000000     0.284150000000    -0.558886   
O321     O      0.976890000000     0.527630000000     0.999570000000    -0.553692   
O322     O      0.566260000000     0.527260000000     0.018960000000    -0.560317   
O323     O      0.530180000000     0.529410000000     0.949080000000    -0.555553   
O324     O      0.512840000000     0.525020000000     0.069010000000    -0.556697   
O325     O      0.984730000000     0.963830000000     0.067830000000    -0.564504   
O326     O      0.995510000000     0.968550000000     0.947350000000    -0.556031   
O327     O      0.535450000000     0.966300000000     0.014270000000    -0.557266   
O328     O      0.945050000000     0.966590000000     0.001430000000    -0.559247   
O329     O      0.572680000000     0.799120000000     0.992730000000    -0.558417   
O330     O      0.981760000000     0.798550000000     0.001750000000    -0.550922   
O331     O      0.528810000000     0.796410000000     0.057690000000    -0.555436   
O332     O      0.525670000000     0.801200000000     0.936330000000    -0.554428   
O333     O      0.991070000000     0.740080000000     0.933630000000    -0.550805   
O334     O      0.002190000000     0.735340000000     0.053880000000    -0.562555   
O335     O      0.951380000000     0.737290000000     0.002450000000    -0.559559   
O336     O      0.541840000000     0.738170000000     0.985480000000    -0.557774   
O337     O      0.788460000000     0.968400000000     0.023960000000    -0.5612     
O338     O      0.697770000000     0.968400000000     0.023580000000    -0.560495   
O339     O      0.743890000000     0.970940000000     0.963240000000    -0.558105   
O340     O      0.742650000000     0.966480000000     0.084750000000    -0.556474   
O341     O      0.770400000000     0.527130000000     0.088240000000    -0.561081   
O342     O      0.779660000000     0.531520000000     0.967590000000    -0.562195   
O343     O      0.729620000000     0.529240000000     0.023440000000    -0.557191   
O344     O      0.820270000000     0.528880000000     0.031870000000    -0.557259   
O345     O      0.698750000000     0.736930000000     0.015740000000    -0.558668   
O346     O      0.789330000000     0.737350000000     0.002620000000    -0.558051   
O347     O      0.747780000000     0.734170000000     0.069640000000    -0.557313   
O348     O      0.740160000000     0.740050000000     0.949160000000    -0.558096   
O349     O      0.775050000000     0.801130000000     0.952660000000    -0.556368   
O350     O      0.774600000000     0.795210000000     0.074060000000    -0.555399   
O351     O      0.820330000000     0.798230000000     0.010620000000    -0.557438   
O352     O      0.729490000000     0.798200000000     0.015660000000    -0.558372   
O353     O      0.982680000000     0.998790000000     0.734780000000    -0.552361   
O354     O      0.988050000000     0.003180000000     0.613390000000    -0.549935   
O355     O      0.985390000000     0.955910000000     0.673990000000    -0.553909   
O356     O      0.984580000000     0.545720000000     0.673380000000    -0.554137   
O357     O      0.546240000000     0.576540000000     0.673080000000    -0.557663   
O358     O      0.546730000000     0.986570000000     0.681370000000    -0.557463   
O359     O      0.549220000000     0.529770000000     0.615870000000    -0.554928   
O360     O      0.543510000000     0.533300000000     0.737060000000    -0.555919   
O361     O      0.546240000000     0.781990000000     0.720120000000    -0.553418   
O362     O      0.544420000000     0.779720000000     0.598260000000    -0.554107   
O363     O      0.545620000000     0.826080000000     0.658660000000    -0.559446   
O364     O      0.545400000000     0.735810000000     0.659150000000    -0.559203   
O365     O      0.983780000000     0.705320000000     0.656170000000    -0.551211   
O366     O      0.984120000000     0.795680000000     0.663960000000    -0.551726   
O367     O      0.982890000000     0.753340000000     0.599890000000    -0.552163   
O368     O      0.984690000000     0.747460000000     0.720990000000    -0.550596   
O369     O      0.806000000000     0.523630000000     0.751920000000    -0.558763   
O370     O      0.803020000000     0.528070000000     0.630740000000    -0.557629   
O371     O      0.804530000000     0.570990000000     0.696030000000    -0.558539   
O372     O      0.804000000000     0.980630000000     0.687020000000    -0.559828   
O373     O      0.742360000000     0.950140000000     0.684610000000    -0.558456   
O374     O      0.743070000000     0.539990000000     0.702000000000    -0.558762   
O375     O      0.741030000000     0.001020000000     0.632630000000    -0.55872    
O376     O      0.743760000000     0.988570000000     0.752500000000    -0.560227   
O377     O      0.741500000000     0.742880000000     0.739610000000    -0.56007    
O378     O      0.744050000000     0.745670000000     0.618400000000    -0.561357   
O379     O      0.742910000000     0.699100000000     0.678630000000    -0.559548   
O380     O      0.742640000000     0.789250000000     0.678740000000    -0.559362   
O381     O      0.804280000000     0.819870000000     0.676370000000    -0.55851    
O382     O      0.804390000000     0.729820000000     0.684210000000    -0.558198   
O383     O      0.805630000000     0.772440000000     0.620080000000    -0.558272   
O384     O      0.803040000000     0.777500000000     0.741280000000    -0.556521   
V1       V      0.037030000000     0.485880000000     0.338220000000     1.38506    
V2       V      0.503100000000     0.019520000000     0.338580000000     1.40047    
V3       V      0.010890000000     0.224550000000     0.327220000000     1.3634     
V4       V      0.477230000000     0.257140000000     0.330820000000     1.38469    
V5       V      0.227160000000     0.005750000000     0.361740000000     1.38695    
V6       V      0.260580000000     0.472950000000     0.358970000000     1.38319    
V7       V      0.256100000000     0.269640000000     0.348390000000     1.39851    
V8       V      0.289580000000     0.236850000000     0.344350000000     1.39595    
V9       V      0.022090000000     0.029920000000     0.010860000000     1.37157    
V10      V      0.489720000000     0.463740000000     0.006060000000     1.39547    
V11      V      0.028520000000     0.301510000000     0.997420000000     1.36818    
V12      V      0.495430000000     0.235460000000     0.993900000000     1.38524    
V13      V      0.242940000000     0.465570000000     0.024810000000     1.39787    
V14      V      0.275210000000     0.032170000000     0.027060000000     1.39194    
V15      V      0.242880000000     0.234820000000     0.008970000000     1.39039    
V16      V      0.276250000000     0.300840000000     0.013260000000     1.38832    
V17      V      0.482340000000     0.499500000000     0.672580000000     1.39322    
V18      V      0.049280000000     0.032950000000     0.677850000000     1.37603    
V19      V      0.047820000000     0.282050000000     0.659380000000     1.37642    
V20      V      0.481280000000     0.249000000000     0.660720000000     1.39049    
V21      V      0.306460000000     0.026870000000     0.690770000000     1.39153    
V22      V      0.240490000000     0.494000000000     0.693410000000     1.39549    
V23      V      0.240370000000     0.243150000000     0.678650000000     1.39766    
V24      V      0.306920000000     0.276160000000     0.680470000000     1.38864    
V25      V      0.036610000000     0.986670000000     0.339030000000     1.38524    
V26      V      0.503540000000     0.518760000000     0.337880000000     1.39846    
V27      V      0.010700000000     0.724540000000     0.327000000000     1.36344    
V28      V      0.477060000000     0.757150000000     0.330540000000     1.38477    
V29      V      0.227100000000     0.505740000000     0.362410000000     1.38749    
V30      V      0.260560000000     0.972900000000     0.358040000000     1.38077    
V31      V      0.255850000000     0.769320000000     0.348620000000     1.39821    
V32      V      0.289720000000     0.736920000000     0.344590000000     1.39565    
V33      V      0.022790000000     0.529810000000     0.009200000000     1.37125    
V34      V      0.488960000000     0.963850000000     0.007500000000     1.39565    
V35      V      0.028460000000     0.801290000000     0.997180000000     1.3683     
V36      V      0.495360000000     0.735250000000     0.993650000000     1.38475    
V37      V      0.241950000000     0.966080000000     0.023830000000     1.39448    
V38      V      0.276240000000     0.531670000000     0.028000000000     1.3933     
V39      V      0.242790000000     0.734650000000     0.009200000000     1.39046    
V40      V      0.276150000000     0.800670000000     0.013490000000     1.38781    
V41      V      0.482800000000     0.999700000000     0.674000000000     1.39374    
V42      V      0.048800000000     0.532720000000     0.676650000000     1.37452    
V43      V      0.047920000000     0.782140000000     0.659100000000     1.37614    
V44      V      0.481380000000     0.749220000000     0.660420000000     1.39047    
V45      V      0.307030000000     0.527220000000     0.691320000000     1.39135    
V46      V      0.239920000000     0.993670000000     0.692700000000     1.39228    
V47      V      0.240290000000     0.742950000000     0.678890000000     1.39717    
V48      V      0.306840000000     0.776130000000     0.680690000000     1.3892     
V49      V      0.537030000000     0.485880000000     0.338220000000     1.39179    
V50      V      0.003100000000     0.019520000000     0.338580000000     1.39136    
V51      V      0.510890000000     0.224550000000     0.327220000000     1.37908    
V52      V      0.977230000000     0.257140000000     0.330820000000     1.40322    
V53      V      0.727160000000     0.005750000000     0.361740000000     1.38695    
V54      V      0.760580000000     0.472950000000     0.358970000000     1.38335    
V55      V      0.756100000000     0.269640000000     0.348390000000     1.39851    
V56      V      0.789580000000     0.236850000000     0.344350000000     1.39591    
V57      V      0.522090000000     0.029920000000     0.010860000000     1.38906    
V58      V      0.989720000000     0.463740000000     0.006060000000     1.41323    
V59      V      0.528520000000     0.301510000000     0.997420000000     1.38775    
V60      V      0.995430000000     0.235460000000     0.993900000000     1.41025    
V61      V      0.742940000000     0.465570000000     0.024810000000     1.39778    
V62      V      0.775210000000     0.032170000000     0.027060000000     1.39206    
V63      V      0.742880000000     0.234820000000     0.008970000000     1.3904     
V64      V      0.776250000000     0.300840000000     0.013260000000     1.38829    
V65      V      0.982340000000     0.499500000000     0.672580000000     1.39784    
V66      V      0.549280000000     0.032950000000     0.677850000000     1.38564    
V67      V      0.547820000000     0.282050000000     0.659380000000     1.38602    
V68      V      0.981280000000     0.249000000000     0.660720000000     1.39495    
V69      V      0.806460000000     0.026870000000     0.690770000000     1.39199    
V70      V      0.740490000000     0.494000000000     0.693410000000     1.39535    
V71      V      0.740370000000     0.243150000000     0.678650000000     1.3975     
V72      V      0.806920000000     0.276160000000     0.680470000000     1.38892    
V73      V      0.536610000000     0.986670000000     0.339030000000     1.39189    
V74      V      0.003540000000     0.518760000000     0.337880000000     1.38958    
V75      V      0.510700000000     0.724540000000     0.327000000000     1.37947    
V76      V      0.977060000000     0.757150000000     0.330540000000     1.40333    
V77      V      0.727100000000     0.505740000000     0.362410000000     1.38744    
V78      V      0.760560000000     0.972900000000     0.358040000000     1.38088    
V79      V      0.755850000000     0.769320000000     0.348620000000     1.398      
V80      V      0.789720000000     0.736920000000     0.344590000000     1.39581    
V81      V      0.522790000000     0.529810000000     0.009200000000     1.38869    
V82      V      0.988950000000     0.963850000000     0.007500000000     1.41343    
V83      V      0.528460000000     0.801290000000     0.997180000000     1.38784    
V84      V      0.995360000000     0.735250000000     0.993650000000     1.40972    
V85      V      0.741950000000     0.966080000000     0.023830000000     1.39438    
V86      V      0.776240000000     0.531670000000     0.028000000000     1.3934     
V87      V      0.742790000000     0.734650000000     0.009200000000     1.39047    
V88      V      0.776150000000     0.800670000000     0.013490000000     1.38778    
V89      V      0.982800000000     0.999700000000     0.674000000000     1.39837    
V90      V      0.548800000000     0.532720000000     0.676650000000     1.38405    
V91      V      0.547920000000     0.782140000000     0.659100000000     1.38577    
V92      V      0.981380000000     0.749220000000     0.660420000000     1.39504    
V93      V      0.807030000000     0.527220000000     0.691320000000     1.39151    
V94      V      0.739910000000     0.993670000000     0.692700000000     1.3923     
V95      V      0.740290000000     0.742950000000     0.678890000000     1.397      
V96      V      0.806840000000     0.776130000000     0.680690000000     1.38927    


