data_structure

_audit_creation_method RASPA-1.0
_audit_creation_date 2023-5-19
_audit_author_name 'Poobodin Mano'

_cell_length_a    41.1817
_cell_length_b    41.8972
_cell_length_c    41.5848
_cell_angle_alpha 90
_cell_angle_beta  90
_cell_angle_gamma 90
_cell_volume      71750.3

_symmetry_cell_setting          triclinic
_symmetry_space_group_name_Hall 'P 1'
_symmetry_space_group_name_H-M  'P 1'
_symmetry_Int_Tables_number     1

_symmetry_equiv_pos_as_xyz 'x,y,z'

loop_
_atom_site_label
_atom_site_type_symbol
_atom_site_fract_x
_atom_site_fract_y
_atom_site_fract_z
_atom_site_charge
C1       C      0.523410000000     0.061640000000     0.273020000000     0.499689   
C2       C      0.511430000000     0.441890000000     0.268250000000     0.516677   
C3       C      0.456390000000     0.506620000000     0.265680000000     0.50724    
C4       C      0.078010000000     0.496390000000     0.274860000000     0.511155   
C5       C      0.527550000000     0.246970000000     0.199610000000     0.508237   
C6       C      0.515190000000     0.257240000000     0.319980000000     0.507351   
C7       C      0.022390000000     0.192200000000     0.264100000000     0.481877   
C8       C      0.020460000000     0.312540000000     0.255270000000     0.472745   
C9       C      0.324540000000     0.018670000000     0.263870000000     0.466308   
C10      C      0.202220000000     0.017090000000     0.253760000000     0.466626   
C11      C      0.267930000000     0.518450000000     0.197500000000     0.506889   
C12      C      0.258870000000     0.517070000000     0.318990000000     0.507038   
C13      C      0.274090000000     0.008810000000     0.067590000000     0.475777   
C14      C      0.251960000000     0.005280000000     0.448050000000     0.4696     
C15      C      0.261020000000     0.067980000000     0.505970000000     0.50415    
C16      C      0.265080000000     0.447340000000     0.509360000000     0.470842   
C17      C      0.074590000000     0.241350000000     0.013020000000     0.510769   
C18      C      0.455300000000     0.269350000000     0.011940000000     0.512956   
C19      C      0.514170000000     0.257440000000     0.072450000000     0.473586   
C20      C      0.515950000000     0.252960000000     0.451090000000     0.488735   
C21      C      0.201870000000     0.254490000000     0.000820000000     0.47532    
C22      C      0.324430000000     0.263220000000     0.005610000000     0.470105   
C23      C      0.267820000000     0.198510000000     0.507490000000     0.472386   
C24      C      0.258080000000     0.318620000000     0.499050000000     0.506219   
C25      C      0.374900000000     0.247560000000     0.032750000000    -0.0157545  
C26      C      0.376420000000     0.277270000000     0.479650000000    -0.0987089  
C27      C      0.405170000000     0.265640000000     0.043410000000     0.00222284 
C28      C      0.405910000000     0.296350000000     0.491620000000     0.32671    
C29      C      0.150050000000     0.272700000000     0.023580000000    -0.0163426  
C30      C      0.150410000000     0.235970000000     0.475560000000    -0.0956634  
C31      C      0.126040000000     0.250930000000     0.040430000000     0.00421843 
C32      C      0.124260000000     0.215060000000     0.492070000000     0.322029   
C33      C      0.290700000000     0.396950000000     0.492090000000    -0.0151625  
C34      C      0.244870000000     0.397010000000     0.032470000000    -0.100836   
C35      C      0.274290000000     0.369350000000     0.474090000000    -0.000497413
C36      C      0.229920000000     0.368120000000     0.015670000000     0.327333   
C37      C      0.291860000000     0.148080000000     0.988090000000    -0.0138768  
C38      C      0.256310000000     0.148860000000     0.037300000000    -0.0986747  
C39      C      0.275720000000     0.117050000000     0.477190000000    -0.00213085 
C40      C      0.238190000000     0.119330000000     0.525070000000     0.326177   
C41      C      0.263760000000     0.478490000000     0.396890000000    -0.0119597  
C42      C      0.222800000000     0.022910000000     0.399260000000    -0.0974505  
C43      C      0.280660000000     0.494540000000     0.368680000000    -0.00109009 
C44      C      0.239950000000     0.039720000000     0.370980000000     0.324181   
C45      C      0.264620000000     0.481280000000     0.118730000000    -0.010463   
C46      C      0.302070000000     0.028590000000     0.116380000000    -0.0928033  
C47      C      0.247150000000     0.495560000000     0.147530000000    -0.00163104 
C48      C      0.284570000000     0.043370000000     0.145660000000     0.322602   
C49      C      0.045280000000     0.266500000000     0.401480000000    -0.0125787  
C50      C      0.496810000000     0.229690000000     0.400110000000    -0.0943883  
C51      C      0.034030000000     0.281870000000     0.370140000000    -0.00016455 
C52      C      0.484290000000     0.246830000000     0.370030000000     0.325797   
C53      C      0.032700000000     0.281760000000     0.123300000000    -0.0152077  
C54      C      0.491960000000     0.236710000000     0.123320000000    -0.101153   
C55      C      0.052710000000     0.264020000000     0.148850000000    -0.00186658 
C56      C      0.511620000000     0.219690000000     0.149140000000     0.329094   
C57      C      0.149670000000     0.038680000000     0.271740000000    -0.020816   
C58      C      0.152030000000     0.491250000000     0.234520000000    -0.100956   
C59      C      0.128710000000     0.019270000000     0.295280000000    -0.0022515  
C60      C      0.130200000000     0.472550000000     0.257390000000     0.331074   
C61      C      0.377800000000     0.044550000000     0.256120000000    -0.0154419  
C62      C      0.372080000000     0.495700000000     0.290990000000    -0.0999995  
C63      C      0.407980000000     0.029910000000     0.240350000000    -0.000391287
C64      C      0.403150000000     0.481970000000     0.276650000000     0.327702   
C65      C      0.044540000000     0.363460000000     0.272060000000    -0.0160603  
C66      C      0.498450000000     0.362440000000     0.232040000000    -0.099244   
C67      C      0.027650000000     0.390200000000     0.290350000000     0.00384929 
C68      C      0.484610000000     0.392900000000     0.247460000000     0.328079   
C69      C      0.495090000000     0.142270000000     0.278790000000    -0.0156749  
C70      C      0.046430000000     0.141970000000     0.245310000000    -0.101032   
C71      C      0.507150000000     0.112790000000     0.296660000000     0.0011181  
C72      C      0.055830000000     0.109910000000     0.260460000000     0.326716   
C73      C      0.523410000000     0.061640000000     0.773020000000     0.499688   
C74      C      0.511430000000     0.441890000000     0.768250000000     0.516662   
C75      C      0.456390000000     0.506620000000     0.765680000000     0.507238   
C76      C      0.078010000000     0.496390000000     0.774860000000     0.511154   
C77      C      0.527550000000     0.246970000000     0.699610000000     0.508236   
C78      C      0.515190000000     0.257240000000     0.819980000000     0.507221   
C79      C      0.022390000000     0.192200000000     0.764100000000     0.481877   
C80      C      0.020460000000     0.312540000000     0.755270000000     0.472746   
C81      C      0.324540000000     0.018670000000     0.763870000000     0.466308   
C82      C      0.202220000000     0.017090000000     0.753760000000     0.466626   
C83      C      0.267930000000     0.518450000000     0.697500000000     0.506889   
C84      C      0.258870000000     0.517070000000     0.818990000000     0.507039   
C85      C      0.274090000000     0.008810000000     0.567590000000     0.475685   
C86      C      0.251960000000     0.005280000000     0.948060000000     0.469635   
C87      C      0.261020000000     0.067980000000     0.005970000000     0.503882   
C88      C      0.265080000000     0.447340000000     0.009360000000     0.47081    
C89      C      0.074590000000     0.241350000000     0.513020000000     0.510799   
C90      C      0.455300000000     0.269350000000     0.511940000000     0.512941   
C91      C      0.514170000000     0.257440000000     0.572450000000     0.473602   
C92      C      0.515950000000     0.252960000000     0.951090000000     0.488705   
C93      C      0.201870000000     0.254490000000     0.500820000000     0.475708   
C94      C      0.324430000000     0.263220000000     0.505610000000     0.470336   
C95      C      0.267820000000     0.198510000000     0.007490000000     0.472171   
C96      C      0.258080000000     0.318620000000     0.999050000000     0.506448   
C97      C      0.374900000000     0.247560000000     0.532750000000    -0.015742   
C98      C      0.376420000000     0.277270000000     0.979650000000    -0.0986542  
C99      C      0.405170000000     0.265640000000     0.543410000000     0.00224769 
C100     C      0.405910000000     0.296350000000     0.991620000000     0.327036   
C101     C      0.150050000000     0.272700000000     0.523580000000    -0.0161775  
C102     C      0.150410000000     0.235970000000     0.975560000000    -0.0957434  
C103     C      0.126040000000     0.250930000000     0.540430000000     0.00417855 
C104     C      0.124260000000     0.215060000000     0.992070000000     0.322364   
C105     C      0.290700000000     0.396950000000     0.992090000000    -0.0147774  
C106     C      0.244870000000     0.397010000000     0.532470000000    -0.100918   
C107     C      0.274290000000     0.369350000000     0.974090000000    -0.000581708
C108     C      0.229920000000     0.368120000000     0.515670000000     0.327671   
C109     C      0.291860000000     0.148080000000     0.488090000000    -0.014205   
C110     C      0.256310000000     0.148860000000     0.537300000000    -0.0986654  
C111     C      0.275720000000     0.117050000000     0.977190000000    -0.00208181 
C112     C      0.238190000000     0.119330000000     0.025070000000     0.32616    
C113     C      0.263760000000     0.478490000000     0.896890000000    -0.0119807  
C114     C      0.222800000000     0.022910000000     0.899260000000    -0.09747    
C115     C      0.280660000000     0.494540000000     0.868680000000    -0.00108714 
C116     C      0.239950000000     0.039720000000     0.870980000000     0.324185   
C117     C      0.264620000000     0.481280000000     0.618730000000    -0.0104728  
C118     C      0.302070000000     0.028590000000     0.616380000000    -0.0928112  
C119     C      0.247150000000     0.495560000000     0.647530000000    -0.0016198  
C120     C      0.284570000000     0.043370000000     0.645660000000     0.322604   
C121     C      0.045280000000     0.266500000000     0.901480000000    -0.0125802  
C122     C      0.496810000000     0.229690000000     0.900110000000    -0.0943583  
C123     C      0.034030000000     0.281870000000     0.870140000000    -0.000151932
C124     C      0.484290000000     0.246830000000     0.870030000000     0.325674   
C125     C      0.032700000000     0.281760000000     0.623300000000    -0.0152085  
C126     C      0.491960000000     0.236710000000     0.623320000000    -0.101157   
C127     C      0.052710000000     0.264020000000     0.648850000000    -0.00186625 
C128     C      0.511620000000     0.219690000000     0.649140000000     0.329111   
C129     C      0.149670000000     0.038680000000     0.771740000000    -0.0208161  
C130     C      0.152030000000     0.491250000000     0.734520000000    -0.100957   
C131     C      0.128710000000     0.019270000000     0.795280000000    -0.00225258 
C132     C      0.130200000000     0.472550000000     0.757390000000     0.331074   
C133     C      0.377800000000     0.044550000000     0.756120000000    -0.0154426  
C134     C      0.372080000000     0.495700000000     0.790990000000    -0.100001   
C135     C      0.407980000000     0.029910000000     0.740350000000    -0.000391812
C136     C      0.403150000000     0.481970000000     0.776650000000     0.327702   
C137     C      0.044540000000     0.363460000000     0.772060000000    -0.0160553  
C138     C      0.498450000000     0.362440000000     0.732040000000    -0.099181   
C139     C      0.027650000000     0.390200000000     0.790350000000     0.00384386 
C140     C      0.484610000000     0.392900000000     0.747460000000     0.32791    
C141     C      0.495090000000     0.142270000000     0.778790000000    -0.015675   
C142     C      0.046430000000     0.141970000000     0.745310000000    -0.101032   
C143     C      0.507150000000     0.112790000000     0.796660000000     0.00111658 
C144     C      0.055830000000     0.109910000000     0.760460000000     0.326715   
C145     C      0.523410000000     0.561640000000     0.273020000000     0.500883   
C146     C      0.511430000000     0.941890000000     0.268250000000     0.514436   
C147     C      0.456390000000     0.006620000000     0.265680000000     0.505119   
C148     C      0.078010000000     0.996390000000     0.274860000000     0.521504   
C149     C      0.527550000000     0.746970000000     0.199610000000     0.508162   
C150     C      0.515190000000     0.757240000000     0.319980000000     0.507348   
C151     C      0.022390000000     0.692200000000     0.264100000000     0.481809   
C152     C      0.020460000000     0.812540000000     0.255270000000     0.472812   
C153     C      0.324540000000     0.518670000000     0.263870000000     0.477737   
C154     C      0.202220000000     0.517090000000     0.253760000000     0.477974   
C155     C      0.267930000000     0.018450000000     0.197500000000     0.495461   
C156     C      0.258870000000     0.017070000000     0.318990000000     0.49532    
C157     C      0.274090000000     0.508810000000     0.067590000000     0.477461   
C158     C      0.251960000000     0.505280000000     0.448050000000     0.471321   
C159     C      0.261020000000     0.567980000000     0.505970000000     0.50494    
C160     C      0.265080000000     0.947330000000     0.509360000000     0.469221   
C161     C      0.074590000000     0.741350000000     0.013020000000     0.510726   
C162     C      0.455300000000     0.769350000000     0.011940000000     0.512928   
C163     C      0.514170000000     0.757440000000     0.072450000000     0.473548   
C164     C      0.515950000000     0.752960000000     0.451090000000     0.488705   
C165     C      0.201870000000     0.754490000000     0.000820000000     0.475323   
C166     C      0.324430000000     0.763220000000     0.005610000000     0.470117   
C167     C      0.267820000000     0.698510000000     0.507490000000     0.472364   
C168     C      0.258080000000     0.818620000000     0.499050000000     0.506242   
C169     C      0.374900000000     0.747560000000     0.032750000000    -0.0157518  
C170     C      0.376420000000     0.777270000000     0.479650000000    -0.0986979  
C171     C      0.405170000000     0.765640000000     0.043410000000     0.00218248 
C172     C      0.405910000000     0.796350000000     0.491620000000     0.326688   
C173     C      0.150050000000     0.772700000000     0.023580000000    -0.0164094  
C174     C      0.150410000000     0.735970000000     0.475560000000    -0.0956908  
C175     C      0.126040000000     0.750930000000     0.040430000000     0.00423519 
C176     C      0.124260000000     0.715060000000     0.492070000000     0.32202    
C177     C      0.290700000000     0.896950000000     0.492090000000    -0.015264   
C178     C      0.244870000000     0.897010000000     0.032470000000    -0.100912   
C179     C      0.274290000000     0.869350000000     0.474090000000    -0.000438639
C180     C      0.229920000000     0.868120000000     0.015670000000     0.327395   
C181     C      0.291860000000     0.648080000000     0.988090000000    -0.0139147  
C182     C      0.256310000000     0.648860000000     0.037300000000    -0.098708   
C183     C      0.275720000000     0.617050000000     0.477190000000    -0.00210627 
C184     C      0.238190000000     0.619330000000     0.525070000000     0.326203   
C185     C      0.263760000000     0.978490000000     0.396890000000    -0.00894293 
C186     C      0.222800000000     0.522910000000     0.399260000000    -0.0969401  
C187     C      0.280660000000     0.994540000000     0.368680000000     0.0166604  
C188     C      0.239950000000     0.539720000000     0.370980000000     0.324753   
C189     C      0.264620000000     0.981280000000     0.118730000000    -0.00746022 
C190     C      0.302070000000     0.528590000000     0.116380000000    -0.092267   
C191     C      0.247150000000     0.995560000000     0.147530000000     0.0161424  
C192     C      0.284570000000     0.543370000000     0.145660000000     0.323169   
C193     C      0.045280000000     0.766500000000     0.401480000000    -0.0125573  
C194     C      0.496810000000     0.729690000000     0.400110000000    -0.0944078  
C195     C      0.034030000000     0.781870000000     0.370140000000    -0.000245312
C196     C      0.484290000000     0.746830000000     0.370030000000     0.32578    
C197     C      0.032700000000     0.781760000000     0.123300000000    -0.0153352  
C198     C      0.491960000000     0.736710000000     0.123320000000    -0.10118    
C199     C      0.052710000000     0.764020000000     0.148850000000    -0.00183896 
C200     C      0.511620000000     0.719690000000     0.149140000000     0.329078   
C201     C      0.149670000000     0.538680000000     0.271740000000    -0.0218727  
C202     C      0.152030000000     0.991250000000     0.234520000000    -0.0818037  
C203     C      0.128710000000     0.519270000000     0.295280000000     0.00505982 
C204     C      0.130200000000     0.972550000000     0.257390000000     0.327653   
C205     C      0.377800000000     0.544550000000     0.256120000000    -0.0149087  
C206     C      0.372080000000     0.995700000000     0.290990000000    -0.0823449  
C207     C      0.407980000000     0.529910000000     0.240350000000     0.000204051
C208     C      0.403150000000     0.981970000000     0.276650000000     0.330967   
C209     C      0.044540000000     0.863460000000     0.272060000000    -0.0159909  
C210     C      0.498450000000     0.862440000000     0.232040000000    -0.0992633  
C211     C      0.027650000000     0.890200000000     0.290350000000     0.0036358  
C212     C      0.484610000000     0.892900000000     0.247460000000     0.328056   
C213     C      0.495090000000     0.642270000000     0.278790000000    -0.0156811  
C214     C      0.046430000000     0.641960000000     0.245310000000    -0.101168   
C215     C      0.507150000000     0.612790000000     0.296660000000     0.00111407 
C216     C      0.055830000000     0.609910000000     0.260460000000     0.32687    
C217     C      0.523410000000     0.561640000000     0.773020000000     0.500882   
C218     C      0.511430000000     0.941890000000     0.768250000000     0.51442    
C219     C      0.456390000000     0.006620000000     0.765680000000     0.505116   
C220     C      0.078010000000     0.996390000000     0.774860000000     0.521502   
C221     C      0.527550000000     0.746970000000     0.699610000000     0.508161   
C222     C      0.515190000000     0.757240000000     0.819980000000     0.507218   
C223     C      0.022390000000     0.692200000000     0.764100000000     0.481809   
C224     C      0.020460000000     0.812540000000     0.755270000000     0.472813   
C225     C      0.324540000000     0.518670000000     0.763870000000     0.477737   
C226     C      0.202220000000     0.517090000000     0.753760000000     0.477973   
C227     C      0.267930000000     0.018450000000     0.697500000000     0.495461   
C228     C      0.258870000000     0.017070000000     0.818990000000     0.495321   
C229     C      0.274090000000     0.508810000000     0.567590000000     0.477369   
C230     C      0.251960000000     0.505280000000     0.948060000000     0.471357   
C231     C      0.261020000000     0.567980000000     0.005970000000     0.504672   
C232     C      0.265080000000     0.947330000000     0.009360000000     0.469189   
C233     C      0.074590000000     0.741350000000     0.513020000000     0.510756   
C234     C      0.455300000000     0.769350000000     0.511940000000     0.512913   
C235     C      0.514170000000     0.757440000000     0.572450000000     0.473564   
C236     C      0.515950000000     0.752960000000     0.951090000000     0.488675   
C237     C      0.201870000000     0.754490000000     0.500820000000     0.475711   
C238     C      0.324430000000     0.763220000000     0.505610000000     0.470347   
C239     C      0.267820000000     0.698510000000     0.007490000000     0.472149   
C240     C      0.258080000000     0.818620000000     0.999050000000     0.506471   
C241     C      0.374900000000     0.747560000000     0.532750000000    -0.0157394  
C242     C      0.376420000000     0.777270000000     0.979650000000    -0.0986433  
C243     C      0.405170000000     0.765640000000     0.543410000000     0.00220744 
C244     C      0.405910000000     0.796350000000     0.991620000000     0.327013   
C245     C      0.150050000000     0.772700000000     0.523580000000    -0.0162448  
C246     C      0.150410000000     0.735970000000     0.975560000000    -0.0957706  
C247     C      0.126040000000     0.750930000000     0.540430000000     0.00419543 
C248     C      0.124260000000     0.715060000000     0.992070000000     0.322354   
C249     C      0.290700000000     0.896950000000     0.992090000000    -0.0148812  
C250     C      0.244870000000     0.897010000000     0.532470000000    -0.100993   
C251     C      0.274290000000     0.869350000000     0.974090000000    -0.000522415
C252     C      0.229920000000     0.868120000000     0.515670000000     0.327731   
C253     C      0.291860000000     0.648080000000     0.488090000000    -0.0142424  
C254     C      0.256310000000     0.648860000000     0.537300000000    -0.0986986  
C255     C      0.275720000000     0.617050000000     0.977190000000    -0.0020572  
C256     C      0.238190000000     0.619330000000     0.025070000000     0.326186   
C257     C      0.263760000000     0.978490000000     0.896890000000    -0.00896433 
C258     C      0.222800000000     0.522910000000     0.899260000000    -0.0969596  
C259     C      0.280660000000     0.994540000000     0.868680000000     0.0166619  
C260     C      0.239950000000     0.539720000000     0.870980000000     0.324757   
C261     C      0.264620000000     0.981280000000     0.618730000000    -0.00746812 
C262     C      0.302070000000     0.528590000000     0.616380000000    -0.0922751  
C263     C      0.247150000000     0.995560000000     0.647530000000     0.0161489  
C264     C      0.284570000000     0.543370000000     0.645660000000     0.32317    
C265     C      0.045280000000     0.766500000000     0.901480000000    -0.0125588  
C266     C      0.496810000000     0.729690000000     0.900110000000    -0.0943778  
C267     C      0.034030000000     0.781870000000     0.870140000000    -0.000232694
C268     C      0.484290000000     0.746830000000     0.870030000000     0.325656   
C269     C      0.032700000000     0.781760000000     0.623300000000    -0.015336   
C270     C      0.491960000000     0.736710000000     0.623320000000    -0.101185   
C271     C      0.052710000000     0.764020000000     0.648850000000    -0.00183863 
C272     C      0.511620000000     0.719690000000     0.649140000000     0.329095   
C273     C      0.149670000000     0.538680000000     0.771740000000    -0.0218728  
C274     C      0.152030000000     0.991250000000     0.734520000000    -0.0818053  
C275     C      0.128710000000     0.519270000000     0.795280000000     0.0050584  
C276     C      0.130200000000     0.972550000000     0.757390000000     0.327653   
C277     C      0.377800000000     0.544550000000     0.756120000000    -0.0149094  
C278     C      0.372080000000     0.995700000000     0.790990000000    -0.0823473  
C279     C      0.407980000000     0.529910000000     0.740350000000     0.000203487
C280     C      0.403150000000     0.981970000000     0.776650000000     0.330967   
C281     C      0.044540000000     0.863460000000     0.772060000000    -0.0159859  
C282     C      0.498450000000     0.862440000000     0.732040000000    -0.0992005  
C283     C      0.027650000000     0.890200000000     0.790350000000     0.00363041 
C284     C      0.484610000000     0.892900000000     0.747460000000     0.327888   
C285     C      0.495090000000     0.642270000000     0.778790000000    -0.0156812  
C286     C      0.046430000000     0.641960000000     0.745310000000    -0.101169   
C287     C      0.507150000000     0.612790000000     0.796660000000     0.00111256 
C288     C      0.055830000000     0.609910000000     0.760460000000     0.326869   
C289     C      0.023400000000     0.061640000000     0.273020000000     0.499641   
C290     C      0.011430000000     0.441890000000     0.268250000000     0.51664    
C291     C      0.956390000000     0.506620000000     0.265680000000     0.507338   
C292     C      0.578010000000     0.496390000000     0.274860000000     0.511233   
C293     C      0.027550000000     0.246970000000     0.199610000000     0.507943   
C294     C      0.015190000000     0.257240000000     0.319980000000     0.507076   
C295     C      0.522390000000     0.192200000000     0.264100000000     0.482143   
C296     C      0.520450000000     0.312540000000     0.255270000000     0.472994   
C297     C      0.824540000000     0.018670000000     0.263870000000     0.466301   
C298     C      0.702220000000     0.017090000000     0.253760000000     0.466531   
C299     C      0.767930000000     0.518450000000     0.197500000000     0.506879   
C300     C      0.758870000000     0.517070000000     0.318990000000     0.507015   
C301     C      0.774090000000     0.008810000000     0.067590000000     0.475769   
C302     C      0.751960000000     0.005280000000     0.448050000000     0.469301   
C303     C      0.761020000000     0.067980000000     0.505970000000     0.50414    
C304     C      0.765080000000     0.447340000000     0.509360000000     0.470833   
C305     C      0.574590000000     0.241350000000     0.013020000000     0.510784   
C306     C      0.955300000000     0.269350000000     0.011940000000     0.512919   
C307     C      0.014160000000     0.257440000000     0.072450000000     0.473557   
C308     C      0.015950000000     0.252960000000     0.451090000000     0.488814   
C309     C      0.701870000000     0.254490000000     0.000820000000     0.475331   
C310     C      0.824430000000     0.263220000000     0.005610000000     0.470079   
C311     C      0.767820000000     0.198510000000     0.507490000000     0.4724     
C312     C      0.758080000000     0.318620000000     0.499050000000     0.506237   
C313     C      0.874900000000     0.247560000000     0.032750000000    -0.0157526  
C314     C      0.876420000000     0.277270000000     0.479650000000    -0.0986628  
C315     C      0.905170000000     0.265640000000     0.043410000000     0.00221882 
C316     C      0.905910000000     0.296350000000     0.491620000000     0.3267     
C317     C      0.650050000000     0.272700000000     0.023580000000    -0.0163442  
C318     C      0.650410000000     0.235970000000     0.475560000000    -0.0956633  
C319     C      0.626040000000     0.250930000000     0.040430000000     0.00421963 
C320     C      0.624260000000     0.215060000000     0.492070000000     0.32203    
C321     C      0.790700000000     0.396950000000     0.492090000000    -0.0151602  
C322     C      0.744870000000     0.397010000000     0.032470000000    -0.100836   
C323     C      0.774290000000     0.369350000000     0.474090000000    -0.000508226
C324     C      0.729920000000     0.368120000000     0.015670000000     0.327331   
C325     C      0.791860000000     0.148080000000     0.988090000000    -0.013875   
C326     C      0.756310000000     0.148860000000     0.037300000000    -0.0986034  
C327     C      0.775720000000     0.117050000000     0.477190000000    -0.0021338  
C328     C      0.738190000000     0.119330000000     0.525070000000     0.326157   
C329     C      0.763760000000     0.478490000000     0.396890000000    -0.011972   
C330     C      0.722800000000     0.022910000000     0.399260000000    -0.0974644  
C331     C      0.780660000000     0.494540000000     0.368680000000    -0.00108856 
C332     C      0.739950000000     0.039720000000     0.370980000000     0.32418    
C333     C      0.764620000000     0.481280000000     0.118730000000    -0.0104642  
C334     C      0.802070000000     0.028590000000     0.116380000000    -0.0928056  
C335     C      0.747150000000     0.495560000000     0.147530000000    -0.00163144 
C336     C      0.784570000000     0.043370000000     0.145660000000     0.322605   
C337     C      0.545280000000     0.266500000000     0.401480000000    -0.0125827  
C338     C      0.996810000000     0.229690000000     0.400110000000    -0.0939588  
C339     C      0.534030000000     0.281870000000     0.370140000000    -0.000139013
C340     C      0.984290000000     0.246830000000     0.370030000000     0.325853   
C341     C      0.532700000000     0.281760000000     0.123300000000    -0.0152836  
C342     C      0.991970000000     0.236710000000     0.123320000000    -0.100634   
C343     C      0.552700000000     0.264020000000     0.148850000000    -0.00172105 
C344     C      0.011620000000     0.219690000000     0.149140000000     0.32865    
C345     C      0.649670000000     0.038680000000     0.271740000000    -0.0208148  
C346     C      0.652030000000     0.491250000000     0.234520000000    -0.100929   
C347     C      0.628710000000     0.019270000000     0.295280000000    -0.00225197 
C348     C      0.630200000000     0.472550000000     0.257390000000     0.33094    
C349     C      0.877800000000     0.044550000000     0.256120000000    -0.0154315  
C350     C      0.872080000000     0.495700000000     0.290990000000    -0.0999958  
C351     C      0.907970000000     0.029910000000     0.240350000000    -0.000426443
C352     C      0.903150000000     0.481970000000     0.276650000000     0.327684   
C353     C      0.544550000000     0.363460000000     0.272060000000    -0.0162267  
C354     C      0.998450000000     0.362440000000     0.232040000000    -0.0989349  
C355     C      0.527640000000     0.390200000000     0.290350000000     0.00397434 
C356     C      0.984610000000     0.392900000000     0.247460000000     0.328183   
C357     C      0.995090000000     0.142270000000     0.278790000000    -0.0151964  
C358     C      0.546430000000     0.141970000000     0.245310000000    -0.101011   
C359     C      0.007150000000     0.112790000000     0.296660000000     0.000524191
C360     C      0.555830000000     0.109910000000     0.260460000000     0.326662   
C361     C      0.023400000000     0.061640000000     0.773020000000     0.49964    
C362     C      0.011430000000     0.441890000000     0.768250000000     0.516624   
C363     C      0.956390000000     0.506620000000     0.765680000000     0.507335   
C364     C      0.578010000000     0.496390000000     0.774860000000     0.511232   
C365     C      0.027550000000     0.246970000000     0.699610000000     0.507942   
C366     C      0.015190000000     0.257240000000     0.819980000000     0.506946   
C367     C      0.522390000000     0.192200000000     0.764100000000     0.482143   
C368     C      0.520450000000     0.312540000000     0.755270000000     0.472995   
C369     C      0.824540000000     0.018670000000     0.763870000000     0.466301   
C370     C      0.702220000000     0.017090000000     0.753760000000     0.466531   
C371     C      0.767930000000     0.518450000000     0.697500000000     0.506879   
C372     C      0.758870000000     0.517070000000     0.818990000000     0.507015   
C373     C      0.774090000000     0.008810000000     0.567590000000     0.475677   
C374     C      0.751960000000     0.005280000000     0.948060000000     0.469335   
C375     C      0.761020000000     0.067980000000     0.005970000000     0.503872   
C376     C      0.765080000000     0.447340000000     0.009360000000     0.470801   
C377     C      0.574590000000     0.241350000000     0.513020000000     0.510814   
C378     C      0.955300000000     0.269350000000     0.511940000000     0.512904   
C379     C      0.014160000000     0.257440000000     0.572450000000     0.473573   
C380     C      0.015950000000     0.252960000000     0.951090000000     0.488783   
C381     C      0.701870000000     0.254490000000     0.500820000000     0.475719   
C382     C      0.824430000000     0.263220000000     0.505610000000     0.47031    
C383     C      0.767820000000     0.198510000000     0.007490000000     0.472185   
C384     C      0.758080000000     0.318620000000     0.999050000000     0.506466   
C385     C      0.874900000000     0.247560000000     0.532750000000    -0.0157401  
C386     C      0.876420000000     0.277270000000     0.979650000000    -0.0986081  
C387     C      0.905170000000     0.265640000000     0.543410000000     0.00224368 
C388     C      0.905910000000     0.296350000000     0.991620000000     0.327026   
C389     C      0.650050000000     0.272700000000     0.523580000000    -0.0161791  
C390     C      0.650410000000     0.235970000000     0.975560000000    -0.0957433  
C391     C      0.626040000000     0.250930000000     0.540430000000     0.00417974 
C392     C      0.624260000000     0.215060000000     0.992070000000     0.322365   
C393     C      0.790700000000     0.396950000000     0.992090000000    -0.0147751  
C394     C      0.744870000000     0.397010000000     0.532470000000    -0.100917   
C395     C      0.774290000000     0.369350000000     0.974090000000    -0.000592538
C396     C      0.729920000000     0.368120000000     0.515670000000     0.327668   
C397     C      0.791860000000     0.148080000000     0.488090000000    -0.0142033  
C398     C      0.756310000000     0.148860000000     0.537300000000    -0.098594   
C399     C      0.775720000000     0.117050000000     0.977190000000    -0.00208475 
C400     C      0.738190000000     0.119330000000     0.025070000000     0.32614    
C401     C      0.763760000000     0.478490000000     0.896890000000    -0.011993   
C402     C      0.722800000000     0.022910000000     0.899260000000    -0.0974838  
C403     C      0.780660000000     0.494540000000     0.868680000000    -0.00108562 
C404     C      0.739950000000     0.039720000000     0.870980000000     0.324184   
C405     C      0.764620000000     0.481280000000     0.618730000000    -0.010474   
C406     C      0.802070000000     0.028590000000     0.616380000000    -0.0928135  
C407     C      0.747150000000     0.495560000000     0.647530000000    -0.0016202  
C408     C      0.784570000000     0.043370000000     0.645660000000     0.322606   
C409     C      0.545280000000     0.266500000000     0.901480000000    -0.0125842  
C410     C      0.996810000000     0.229690000000     0.900110000000    -0.0939289  
C411     C      0.534030000000     0.281870000000     0.870140000000    -0.000126442
C412     C      0.984290000000     0.246830000000     0.870030000000     0.32573    
C413     C      0.532700000000     0.281760000000     0.623300000000    -0.0152844  
C414     C      0.991970000000     0.236710000000     0.623320000000    -0.100638   
C415     C      0.552700000000     0.264020000000     0.648850000000    -0.00172072 
C416     C      0.011620000000     0.219690000000     0.649140000000     0.328667   
C417     C      0.649670000000     0.038680000000     0.771740000000    -0.0208149  
C418     C      0.652030000000     0.491250000000     0.734520000000    -0.10093    
C419     C      0.628710000000     0.019270000000     0.795280000000    -0.00225305 
C420     C      0.630200000000     0.472550000000     0.757390000000     0.330939   
C421     C      0.877800000000     0.044550000000     0.756120000000    -0.0154322  
C422     C      0.872080000000     0.495700000000     0.790990000000    -0.0999972  
C423     C      0.907970000000     0.029910000000     0.740350000000    -0.000426969
C424     C      0.903150000000     0.481970000000     0.776650000000     0.327684   
C425     C      0.544550000000     0.363460000000     0.772060000000    -0.0162217  
C426     C      0.998450000000     0.362440000000     0.732040000000    -0.098872   
C427     C      0.527640000000     0.390200000000     0.790350000000     0.00396892 
C428     C      0.984610000000     0.392900000000     0.747460000000     0.328014   
C429     C      0.995090000000     0.142270000000     0.778790000000    -0.0151965  
C430     C      0.546430000000     0.141970000000     0.745310000000    -0.101011   
C431     C      0.007150000000     0.112790000000     0.796660000000     0.000522697
C432     C      0.555830000000     0.109910000000     0.760460000000     0.326662   
C433     C      0.023400000000     0.561640000000     0.273020000000     0.500834   
C434     C      0.011430000000     0.941890000000     0.268250000000     0.514398   
C435     C      0.956390000000     0.006620000000     0.265680000000     0.505217   
C436     C      0.578010000000     0.996390000000     0.274860000000     0.521586   
C437     C      0.027550000000     0.746970000000     0.199610000000     0.507868   
C438     C      0.015190000000     0.757240000000     0.319980000000     0.507073   
C439     C      0.522390000000     0.692200000000     0.264100000000     0.482074   
C440     C      0.520450000000     0.812540000000     0.255270000000     0.47306    
C441     C      0.824540000000     0.518670000000     0.263870000000     0.477729   
C442     C      0.702220000000     0.517090000000     0.253760000000     0.47788    
C443     C      0.767930000000     0.018450000000     0.197500000000     0.495451   
C444     C      0.758870000000     0.017070000000     0.318990000000     0.495298   
C445     C      0.774090000000     0.508810000000     0.067590000000     0.477453   
C446     C      0.751960000000     0.505280000000     0.448050000000     0.471022   
C447     C      0.761020000000     0.567980000000     0.505970000000     0.50493    
C448     C      0.765080000000     0.947330000000     0.509360000000     0.469213   
C449     C      0.574590000000     0.741350000000     0.013020000000     0.510741   
C450     C      0.955300000000     0.769350000000     0.011940000000     0.512891   
C451     C      0.014160000000     0.757440000000     0.072450000000     0.473519   
C452     C      0.015950000000     0.752960000000     0.451090000000     0.488783   
C453     C      0.701870000000     0.754490000000     0.000820000000     0.475334   
C454     C      0.824430000000     0.763220000000     0.005610000000     0.47009    
C455     C      0.767820000000     0.698510000000     0.507490000000     0.472378   
C456     C      0.758080000000     0.818620000000     0.499050000000     0.50626    
C457     C      0.874900000000     0.747560000000     0.032750000000    -0.0157499  
C458     C      0.876420000000     0.777270000000     0.479650000000    -0.0986516  
C459     C      0.905170000000     0.765640000000     0.043410000000     0.00217847 
C460     C      0.905910000000     0.796350000000     0.491620000000     0.326678   
C461     C      0.650050000000     0.772700000000     0.023580000000    -0.016411   
C462     C      0.650410000000     0.735970000000     0.475560000000    -0.0956907  
C463     C      0.626040000000     0.750930000000     0.040430000000     0.00423638 
C464     C      0.624260000000     0.715060000000     0.492070000000     0.322021   
C465     C      0.790700000000     0.896950000000     0.492090000000    -0.0152616  
C466     C      0.744870000000     0.897010000000     0.032470000000    -0.100912   
C467     C      0.774290000000     0.869350000000     0.474090000000    -0.000449636
C468     C      0.729920000000     0.868120000000     0.015670000000     0.327392   
C469     C      0.791860000000     0.648080000000     0.988090000000    -0.013913   
C470     C      0.756310000000     0.648860000000     0.037300000000    -0.0986366  
C471     C      0.775720000000     0.617050000000     0.477190000000    -0.00210923 
C472     C      0.738190000000     0.619330000000     0.525070000000     0.326183   
C473     C      0.763760000000     0.978490000000     0.396890000000    -0.00895522 
C474     C      0.722800000000     0.522910000000     0.399260000000    -0.096954   
C475     C      0.780660000000     0.994540000000     0.368680000000     0.0166611  
C476     C      0.739950000000     0.539720000000     0.370980000000     0.324752   
C477     C      0.764620000000     0.981280000000     0.118730000000    -0.00746157 
C478     C      0.802070000000     0.528590000000     0.116380000000    -0.0922693  
C479     C      0.747150000000     0.995560000000     0.147530000000     0.0161413  
C480     C      0.784570000000     0.543370000000     0.145660000000     0.323171   
C481     C      0.545280000000     0.766500000000     0.401480000000    -0.0125614  
C482     C      0.996810000000     0.729690000000     0.400110000000    -0.0939791  
C483     C      0.534030000000     0.781870000000     0.370140000000    -0.000219816
C484     C      0.984290000000     0.746830000000     0.370030000000     0.325835   
C485     C      0.532700000000     0.781760000000     0.123300000000    -0.0154112  
C486     C      0.991970000000     0.736710000000     0.123320000000    -0.100662   
C487     C      0.552700000000     0.764020000000     0.148850000000    -0.00169345 
C488     C      0.011620000000     0.719690000000     0.149140000000     0.328635   
C489     C      0.649670000000     0.538680000000     0.271740000000    -0.0218744  
C490     C      0.652030000000     0.991250000000     0.234520000000    -0.0817743  
C491     C      0.628710000000     0.519270000000     0.295280000000     0.0050598  
C492     C      0.630200000000     0.972550000000     0.257390000000     0.327519   
C493     C      0.877800000000     0.544550000000     0.256120000000    -0.0148991  
C494     C      0.872080000000     0.995700000000     0.290990000000    -0.0823421  
C495     C      0.907970000000     0.529910000000     0.240350000000     0.000171025
C496     C      0.903150000000     0.981970000000     0.276650000000     0.330947   
C497     C      0.544550000000     0.863460000000     0.272060000000    -0.0161575  
C498     C      0.998450000000     0.862440000000     0.232040000000    -0.0989561  
C499     C      0.527640000000     0.890200000000     0.290350000000     0.00376088 
C500     C      0.984610000000     0.892900000000     0.247460000000     0.32816    
C501     C      0.995090000000     0.642270000000     0.278790000000    -0.0152027  
C502     C      0.546430000000     0.641960000000     0.245310000000    -0.101147   
C503     C      0.007150000000     0.612790000000     0.296660000000     0.00051999 
C504     C      0.555830000000     0.609910000000     0.260460000000     0.326816   
C505     C      0.023400000000     0.561640000000     0.773020000000     0.500833   
C506     C      0.011430000000     0.941890000000     0.768250000000     0.514383   
C507     C      0.956390000000     0.006620000000     0.765680000000     0.505215   
C508     C      0.578010000000     0.996390000000     0.774860000000     0.521585   
C509     C      0.027550000000     0.746970000000     0.699610000000     0.507867   
C510     C      0.015190000000     0.757240000000     0.819980000000     0.506943   
C511     C      0.522390000000     0.692200000000     0.764100000000     0.482074   
C512     C      0.520450000000     0.812540000000     0.755270000000     0.473061   
C513     C      0.824540000000     0.518670000000     0.763870000000     0.477729   
C514     C      0.702220000000     0.517090000000     0.753760000000     0.47788    
C515     C      0.767930000000     0.018450000000     0.697500000000     0.495451   
C516     C      0.758870000000     0.017070000000     0.818990000000     0.495299   
C517     C      0.774090000000     0.508810000000     0.567590000000     0.477361   
C518     C      0.751960000000     0.505280000000     0.948060000000     0.471057   
C519     C      0.761020000000     0.567980000000     0.005970000000     0.504662   
C520     C      0.765080000000     0.947330000000     0.009360000000     0.469181   
C521     C      0.574590000000     0.741350000000     0.513020000000     0.510771   
C522     C      0.955300000000     0.769350000000     0.511940000000     0.512876   
C523     C      0.014160000000     0.757440000000     0.572450000000     0.473535   
C524     C      0.015950000000     0.752960000000     0.951090000000     0.488753   
C525     C      0.701870000000     0.754490000000     0.500820000000     0.475721   
C526     C      0.824430000000     0.763220000000     0.505610000000     0.470321   
C527     C      0.767820000000     0.698510000000     0.007490000000     0.472163   
C528     C      0.758080000000     0.818620000000     0.999050000000     0.506489   
C529     C      0.874900000000     0.747560000000     0.532750000000    -0.0157375  
C530     C      0.876420000000     0.777270000000     0.979650000000    -0.0985971  
C531     C      0.905170000000     0.765640000000     0.543410000000     0.00220343 
C532     C      0.905910000000     0.796350000000     0.991620000000     0.327003   
C533     C      0.650050000000     0.772700000000     0.523580000000    -0.0162464  
C534     C      0.650410000000     0.735970000000     0.975560000000    -0.0957705  
C535     C      0.626040000000     0.750930000000     0.540430000000     0.00419662 
C536     C      0.624260000000     0.715060000000     0.992070000000     0.322355   
C537     C      0.790700000000     0.896950000000     0.992090000000    -0.0148789  
C538     C      0.744870000000     0.897010000000     0.532470000000    -0.100993   
C539     C      0.774290000000     0.869350000000     0.974090000000    -0.000533428
C540     C      0.729920000000     0.868120000000     0.515670000000     0.327728   
C541     C      0.791860000000     0.648080000000     0.488090000000    -0.0142407  
C542     C      0.756310000000     0.648860000000     0.537300000000    -0.0986273  
C543     C      0.775720000000     0.617050000000     0.977190000000    -0.00206016 
C544     C      0.738190000000     0.619330000000     0.025070000000     0.326166   
C545     C      0.763760000000     0.978490000000     0.896890000000    -0.00897661 
C546     C      0.722800000000     0.522910000000     0.899260000000    -0.0969735  
C547     C      0.780660000000     0.994540000000     0.868680000000     0.0166626  
C548     C      0.739950000000     0.539720000000     0.870980000000     0.324756   
C549     C      0.764620000000     0.981280000000     0.618730000000    -0.00746946 
C550     C      0.802070000000     0.528590000000     0.616380000000    -0.0922774  
C551     C      0.747150000000     0.995560000000     0.647530000000     0.0161478  
C552     C      0.784570000000     0.543370000000     0.645660000000     0.323173   
C553     C      0.545280000000     0.766500000000     0.901480000000    -0.0125628  
C554     C      0.996810000000     0.729690000000     0.900110000000    -0.0939491  
C555     C      0.534030000000     0.781870000000     0.870140000000    -0.000207244
C556     C      0.984290000000     0.746830000000     0.870030000000     0.325712   
C557     C      0.532700000000     0.781760000000     0.623300000000    -0.0154119  
C558     C      0.991970000000     0.736710000000     0.623320000000    -0.100667   
C559     C      0.552700000000     0.764020000000     0.648850000000    -0.00169312 
C560     C      0.011620000000     0.719690000000     0.649140000000     0.328652   
C561     C      0.649670000000     0.538680000000     0.771740000000    -0.0218745  
C562     C      0.652030000000     0.991250000000     0.734520000000    -0.0817759  
C563     C      0.628710000000     0.519270000000     0.795280000000     0.00505838 
C564     C      0.630200000000     0.972550000000     0.757390000000     0.327519   
C565     C      0.877800000000     0.544550000000     0.756120000000    -0.0148998  
C566     C      0.872080000000     0.995700000000     0.790990000000    -0.0823446  
C567     C      0.907970000000     0.529910000000     0.740350000000     0.000170461
C568     C      0.903150000000     0.981970000000     0.776650000000     0.330946   
C569     C      0.544550000000     0.863460000000     0.772060000000    -0.0161525  
C570     C      0.998450000000     0.862440000000     0.732040000000    -0.0988933  
C571     C      0.527640000000     0.890200000000     0.790350000000     0.00375549 
C572     C      0.984610000000     0.892900000000     0.747460000000     0.327992   
C573     C      0.995090000000     0.642270000000     0.778790000000    -0.0152028  
C574     C      0.546430000000     0.641960000000     0.745310000000    -0.101148   
C575     C      0.007150000000     0.612790000000     0.796660000000     0.000518498
C576     C      0.555830000000     0.609910000000     0.760460000000     0.326816   
F1       F      0.425540000000     0.304350000000     0.465730000000    -0.438849   
F2       F      0.103450000000     0.202650000000     0.469020000000    -0.438649   
F3       F      0.214740000000     0.348670000000     0.038090000000    -0.443988   
F4       F      0.227520000000     0.101790000000     0.051320000000    -0.43438    
F5       F      0.216940000000     0.055400000000     0.352450000000    -0.441657   
F6       F      0.306970000000     0.059990000000     0.164090000000    -0.436138   
F7       F      0.467040000000     0.225230000000     0.351400000000    -0.437618   
F8       F      0.491250000000     0.201910000000     0.168750000000    -0.437164   
F9       F      0.110840000000     0.451460000000     0.240270000000    -0.439139   
F10      F      0.419430000000     0.464400000000     0.299860000000    -0.431656   
F11      F      0.471960000000     0.412560000000     0.223750000000    -0.428089   
F12      F      0.071210000000     0.091020000000     0.237710000000    -0.438363   
F13      F      0.425540000000     0.304350000000     0.965730000000    -0.438836   
F14      F      0.103450000000     0.202650000000     0.969020000000    -0.438636   
F15      F      0.214740000000     0.348670000000     0.538090000000    -0.444002   
F16      F      0.227520000000     0.101790000000     0.551320000000    -0.434377   
F17      F      0.216940000000     0.055400000000     0.852450000000    -0.441653   
F18      F      0.306970000000     0.059990000000     0.664090000000    -0.436138   
F19      F      0.467040000000     0.225230000000     0.851390000000    -0.437552   
F20      F      0.491250000000     0.201910000000     0.668750000000    -0.437165   
F21      F      0.110840000000     0.451460000000     0.740270000000    -0.439138   
F22      F      0.419430000000     0.464400000000     0.799860000000    -0.431653   
F23      F      0.471960000000     0.412560000000     0.723740000000    -0.428008   
F24      F      0.071210000000     0.091020000000     0.737710000000    -0.438362   
F25      F      0.425540000000     0.804350000000     0.465730000000    -0.438438   
F26      F      0.103450000000     0.702650000000     0.469020000000    -0.43851    
F27      F      0.214740000000     0.848670000000     0.038090000000    -0.443614   
F28      F      0.227520000000     0.601790000000     0.051320000000    -0.434138   
F29      F      0.216940000000     0.555400000000     0.352450000000    -0.441466   
F30      F      0.306970000000     0.559990000000     0.164090000000    -0.435883   
F31      F      0.467040000000     0.725230000000     0.351400000000    -0.437571   
F32      F      0.491250000000     0.701910000000     0.168750000000    -0.437075   
F33      F      0.110840000000     0.951460000000     0.240270000000    -0.437304   
F34      F      0.419430000000     0.964400000000     0.299860000000    -0.428644   
F35      F      0.471960000000     0.912560000000     0.223750000000    -0.426569   
F36      F      0.071210000000     0.591020000000     0.237710000000    -0.43777    
F37      F      0.425540000000     0.804350000000     0.965730000000    -0.438424   
F38      F      0.103450000000     0.702650000000     0.969020000000    -0.438497   
F39      F      0.214740000000     0.848670000000     0.538090000000    -0.443629   
F40      F      0.227520000000     0.601790000000     0.551320000000    -0.434135   
F41      F      0.216940000000     0.555400000000     0.852450000000    -0.441461   
F42      F      0.306970000000     0.559990000000     0.664090000000    -0.435883   
F43      F      0.467040000000     0.725230000000     0.851390000000    -0.437505   
F44      F      0.491250000000     0.701910000000     0.668750000000    -0.437076   
F45      F      0.110840000000     0.951460000000     0.740270000000    -0.437303   
F46      F      0.419430000000     0.964400000000     0.799860000000    -0.428641   
F47      F      0.471960000000     0.912560000000     0.723740000000    -0.426489   
F48      F      0.071210000000     0.591020000000     0.737710000000    -0.437769   
F49      F      0.925540000000     0.304350000000     0.465730000000    -0.438804   
F50      F      0.603450000000     0.202650000000     0.469020000000    -0.43864    
F51      F      0.714740000000     0.348670000000     0.038090000000    -0.443999   
F52      F      0.727520000000     0.101790000000     0.051320000000    -0.434373   
F53      F      0.716940000000     0.055400000000     0.352450000000    -0.441661   
F54      F      0.806970000000     0.059990000000     0.164090000000    -0.43613    
F55      F      0.967040000000     0.225230000000     0.351400000000    -0.437574   
F56      F      0.991250000000     0.201910000000     0.168750000000    -0.436965   
F57      F      0.610830000000     0.451460000000     0.240270000000    -0.439071   
F58      F      0.919430000000     0.464400000000     0.299860000000    -0.431617   
F59      F      0.971960000000     0.412560000000     0.223750000000    -0.42802    
F60      F      0.571210000000     0.091020000000     0.237710000000    -0.438355   
F61      F      0.925540000000     0.304350000000     0.965730000000    -0.438791   
F62      F      0.603450000000     0.202650000000     0.969020000000    -0.438627   
F63      F      0.714740000000     0.348670000000     0.538090000000    -0.444014   
F64      F      0.727520000000     0.101790000000     0.551320000000    -0.434369   
F65      F      0.716940000000     0.055400000000     0.852450000000    -0.441657   
F66      F      0.806970000000     0.059990000000     0.664090000000    -0.43613    
F67      F      0.967040000000     0.225230000000     0.851390000000    -0.437508   
F68      F      0.991250000000     0.201910000000     0.668750000000    -0.436965   
F69      F      0.610830000000     0.451460000000     0.740270000000    -0.43907    
F70      F      0.919430000000     0.464400000000     0.799860000000    -0.431614   
F71      F      0.971960000000     0.412560000000     0.723740000000    -0.42794    
F72      F      0.571210000000     0.091020000000     0.737710000000    -0.438354   
F73      F      0.925540000000     0.804350000000     0.465730000000    -0.438393   
F74      F      0.603450000000     0.702650000000     0.469020000000    -0.438501   
F75      F      0.714740000000     0.848670000000     0.038090000000    -0.443626   
F76      F      0.727520000000     0.601790000000     0.051320000000    -0.434131   
F77      F      0.716940000000     0.555400000000     0.352450000000    -0.441469   
F78      F      0.806970000000     0.559990000000     0.164090000000    -0.435875   
F79      F      0.967040000000     0.725230000000     0.351400000000    -0.437527   
F80      F      0.991250000000     0.701910000000     0.168750000000    -0.436876   
F81      F      0.610830000000     0.951460000000     0.240270000000    -0.437236   
F82      F      0.919430000000     0.964400000000     0.299860000000    -0.428605   
F83      F      0.971960000000     0.912560000000     0.223750000000    -0.426502   
F84      F      0.571210000000     0.591020000000     0.237710000000    -0.437762   
F85      F      0.925540000000     0.804350000000     0.965730000000    -0.43838    
F86      F      0.603450000000     0.702650000000     0.969020000000    -0.438488   
F87      F      0.714740000000     0.848670000000     0.538090000000    -0.44364    
F88      F      0.727520000000     0.601790000000     0.551320000000    -0.434127   
F89      F      0.716940000000     0.555400000000     0.852450000000    -0.441465   
F90      F      0.806970000000     0.559990000000     0.664090000000    -0.435875   
F91      F      0.967040000000     0.725230000000     0.851390000000    -0.437461   
F92      F      0.991250000000     0.701910000000     0.668750000000    -0.436877   
F93      F      0.610830000000     0.951460000000     0.740270000000    -0.437235   
F94      F      0.919430000000     0.964400000000     0.799860000000    -0.428602   
F95      F      0.971960000000     0.912560000000     0.723740000000    -0.426421   
F96      F      0.571210000000     0.591020000000     0.737710000000    -0.437761   
H1       H      0.385190000000     0.256880000000     0.464890000000     0.089785   
H2       H      0.382660000000     0.223950000000     0.523270000000     0.0469     
H3       H      0.420200000000     0.250190000000     0.059320000000     0.0391343  
H4       H      0.361350000000     0.292910000000     0.464000000000     0.0849941  
H5       H      0.397060000000     0.318620000000     0.003240000000    -0.00451362 
H6       H      0.359260000000     0.243000000000     0.054060000000     0.0486905  
H7       H      0.397210000000     0.286610000000     0.057780000000     0.0404358  
H8       H      0.138020000000     0.253050000000     0.459190000000     0.0844574  
H9       H      0.136140000000     0.291570000000     0.010760000000     0.0562915  
H10      H      0.110720000000     0.265050000000     0.057310000000     0.0393762  
H11      H      0.166640000000     0.220530000000     0.460880000000     0.0836386  
H12      H      0.136750000000     0.194980000000     0.504420000000     0.000973684
H13      H      0.165600000000     0.284780000000     0.041740000000     0.0673011  
H14      H      0.139950000000     0.233180000000     0.054770000000     0.0440305  
H15      H      0.259820000000     0.388210000000     0.052910000000     0.0860156  
H16      H      0.308910000000     0.386890000000     0.009040000000     0.0483934  
H17      H      0.293190000000     0.354390000000     0.462300000000     0.0403527  
H18      H      0.225270000000     0.412190000000     0.042720000000     0.0841392  
H19      H      0.211070000000     0.377090000000     0.498800000000    -0.00621342 
H20      H      0.303590000000     0.412400000000     0.474460000000     0.0443239  
H21      H      0.258200000000     0.379460000000     0.455170000000     0.0403392  
H22      H      0.276060000000     0.141020000000     0.053750000000     0.0898496  
H23      H      0.314480000000     0.141760000000     0.001230000000     0.0443194  
H24      H      0.294020000000     0.101770000000     0.464920000000     0.0442023  
H25      H      0.239110000000     0.164010000000     0.051180000000     0.0896494  
H26      H      0.216720000000     0.127260000000     0.510940000000    -0.000193504
H27      H      0.299080000000     0.162250000000     0.466640000000     0.0475929  
H28      H      0.256890000000     0.123200000000     0.459050000000     0.0431293  
H29      H      0.202790000000     0.507950000000     0.389510000000     0.0862752  
H30      H      0.246020000000     0.461010000000     0.387070000000     0.0443265  
H31      H      0.291060000000     0.475980000000     0.352550000000     0.042682   
H32      H      0.212190000000     0.041120000000     0.415670000000     0.0828127  
H33      H      0.257160000000     0.057660000000     0.380880000000    -0.00481788 
H34      H      0.281800000000     0.465000000000     0.411470000000     0.0421239  
H35      H      0.301290000000     0.008780000000     0.378280000000     0.0313974  
H36      H      0.323530000000     0.514990000000     0.125110000000     0.0880975  
H37      H      0.283830000000     0.464970000000     0.127860000000     0.0464923  
H38      H      0.238260000000     0.475970000000     0.163310000000     0.0451216  
H39      H      0.310680000000     0.047920000000     0.100130000000     0.0864078  
H40      H      0.265950000000     0.060430000000     0.136750000000     0.00977356 
H41      H      0.247330000000     0.466750000000     0.104280000000     0.0447665  
H42      H      0.225470000000     0.008650000000     0.138580000000     0.0393326  
H43      H      0.511000000000     0.208370000000     0.392590000000     0.0921397  
H44      H      0.063470000000     0.247820000000     0.395440000000     0.0561282  
H45      H      0.055550000000     0.288950000000     0.355620000000     0.0415644  
H46      H      0.475720000000     0.221500000000     0.414680000000     0.0917001  
H47      H      0.467690000000     0.266370000000     0.377600000000     0.00772153 
H48      H      0.057790000000     0.284680000000     0.416520000000     0.0508804  
H49      H      0.020610000000     0.304080000000     0.376300000000     0.0441804  
H50      H      0.472710000000     0.250940000000     0.135410000000     0.0861922  
H51      H      0.016250000000     0.298870000000     0.135670000000     0.047756   
H52      H      0.065320000000     0.281720000000     0.164420000000     0.0429649  
H53      H      0.479720000000     0.218860000000     0.107670000000     0.0869374  
H54      H      0.528490000000     0.202940000000     0.136840000000    -0.000715831
H55      H      0.049410000000     0.295490000000     0.107470000000     0.0459878  
H56      H      0.071310000000     0.249230000000     0.136450000000     0.0425852  
H57      H      0.136370000000     0.502590000000     0.215970000000     0.0958498  
H58      H      0.133300000000     0.052510000000     0.255660000000     0.0731268  
H59      H      0.112140000000     0.035700000000     0.308450000000     0.0518228  
H60      H      0.168980000000     0.474730000000     0.222000000000     0.085662   
H61      H      0.146150000000     0.458400000000     0.273590000000    -0.00418824 
H62      H      0.164980000000     0.055740000000     0.285530000000     0.069296   
H63      H      0.145010000000     0.007470000000     0.312990000000     0.0489007  
H64      H      0.378500000000     0.508250000000     0.313680000000     0.0851976  
H65      H      0.385690000000     0.060250000000     0.276220000000     0.0492775  
H66      H      0.424850000000     0.049390000000     0.233110000000     0.0473833  
H67      H      0.355260000000     0.475910000000     0.297370000000     0.0851755  
H68      H      0.396110000000     0.465380000000     0.256970000000     0.00801614 
H69      H      0.364670000000     0.059380000000     0.238120000000     0.0617261  
H70      H      0.400380000000     0.016790000000     0.218350000000     0.0530132  
H71      H      0.512880000000     0.369570000000     0.210620000000     0.0919269  
H72      H      0.062190000000     0.374090000000     0.254870000000     0.0631311  
H73      H      0.046290000000     0.404540000000     0.303290000000     0.0495212  
H74      H      0.478170000000     0.347180000000     0.223330000000     0.086209   
H75      H      0.464240000000     0.385600000000     0.263400000000     0.00662261 
H76      H      0.058170000000     0.348480000000     0.289560000000     0.0473861  
H77      H      0.010870000000     0.379570000000     0.308370000000     0.0468018  
H78      H      0.035090000000     0.137130000000     0.221530000000     0.102518   
H79      H      0.478630000000     0.134640000000     0.259020000000     0.0589736  
H80      H      0.485830000000     0.099030000000     0.305540000000     0.0450102  
H81      H      0.068790000000     0.156160000000     0.240730000000     0.0898995  
H82      H      0.073600000000     0.114880000000     0.279970000000    -0.00562579 
H83      H      0.480970000000     0.157430000000     0.295760000000     0.0633632  
H84      H      0.521850000000     0.120520000000     0.317700000000     0.0473502  
H85      H      0.385190000000     0.256880000000     0.964890000000     0.089817   
H86      H      0.382660000000     0.223950000000     0.023270000000     0.046868   
H87      H      0.420200000000     0.250190000000     0.559320000000     0.0391415  
H88      H      0.361350000000     0.292910000000     0.964000000000     0.0850167  
H89      H      0.397060000000     0.318620000000     0.503240000000    -0.0043267  
H90      H      0.359260000000     0.243000000000     0.554060000000     0.0486891  
H91      H      0.397210000000     0.286610000000     0.557790000000     0.0404326  
H92      H      0.138020000000     0.253050000000     0.959190000000     0.0845055  
H93      H      0.136140000000     0.291570000000     0.510760000000     0.0563093  
H94      H      0.110720000000     0.265050000000     0.557310000000     0.0393854  
H95      H      0.166640000000     0.220530000000     0.960880000000     0.083689   
H96      H      0.136750000000     0.194980000000     0.004430000000     0.000803305
H97      H      0.165600000000     0.284780000000     0.541740000000     0.0672771  
H98      H      0.139950000000     0.233180000000     0.554770000000     0.0440525  
H99      H      0.259820000000     0.388210000000     0.552910000000     0.0860407  
H100     H      0.308910000000     0.386890000000     0.509040000000     0.0485888  
H101     H      0.293190000000     0.354390000000     0.962300000000     0.0403942  
H102     H      0.225270000000     0.412190000000     0.542720000000     0.0841747  
H103     H      0.211070000000     0.377090000000     0.998800000000    -0.00600922 
H104     H      0.303590000000     0.412400000000     0.974460000000     0.0443     
H105     H      0.258200000000     0.379460000000     0.955170000000     0.0403775  
H106     H      0.276060000000     0.141020000000     0.553750000000     0.0898549  
H107     H      0.314480000000     0.141760000000     0.501240000000     0.0445069  
H108     H      0.294020000000     0.101770000000     0.964920000000     0.0442325  
H109     H      0.239110000000     0.164010000000     0.551180000000     0.0896508  
H110     H      0.216720000000     0.127260000000     0.010940000000    -0.000234559
H111     H      0.299080000000     0.162250000000     0.966640000000     0.0475575  
H112     H      0.256890000000     0.123200000000     0.959050000000     0.043159   
H113     H      0.202790000000     0.507950000000     0.889510000000     0.0862906  
H114     H      0.246020000000     0.461010000000     0.887070000000     0.0443384  
H115     H      0.291060000000     0.475980000000     0.852550000000     0.0426847  
H116     H      0.212190000000     0.041120000000     0.915670000000     0.0828429  
H117     H      0.257160000000     0.057660000000     0.880880000000    -0.00481139 
H118     H      0.281800000000     0.465000000000     0.911470000000     0.0421457  
H119     H      0.301290000000     0.008780000000     0.878280000000     0.0314053  
H120     H      0.323530000000     0.514990000000     0.625110000000     0.0881014  
H121     H      0.283830000000     0.464970000000     0.627860000000     0.0464948  
H122     H      0.238260000000     0.475970000000     0.663310000000     0.0451199  
H123     H      0.310680000000     0.047920000000     0.600130000000     0.0864144  
H124     H      0.265950000000     0.060430000000     0.636750000000     0.00977366 
H125     H      0.247330000000     0.466750000000     0.604280000000     0.0447696  
H126     H      0.225470000000     0.008650000000     0.638570000000     0.0393354  
H127     H      0.511000000000     0.208370000000     0.892590000000     0.0921394  
H128     H      0.063470000000     0.247820000000     0.895440000000     0.0561373  
H129     H      0.055550000000     0.288950000000     0.855620000000     0.0415616  
H130     H      0.475720000000     0.221500000000     0.914680000000     0.0917059  
H131     H      0.467690000000     0.266370000000     0.877600000000     0.0077531  
H132     H      0.057790000000     0.284680000000     0.916520000000     0.0509     
H133     H      0.020610000000     0.304080000000     0.876300000000     0.0441874  
H134     H      0.472710000000     0.250940000000     0.635410000000     0.086194   
H135     H      0.016250000000     0.298870000000     0.635670000000     0.0477588  
H136     H      0.065320000000     0.281720000000     0.664420000000     0.0429646  
H137     H      0.479720000000     0.218860000000     0.607670000000     0.086946   
H138     H      0.528490000000     0.202940000000     0.636850000000    -0.000733627
H139     H      0.049410000000     0.295490000000     0.607470000000     0.0459913  
H140     H      0.071310000000     0.249230000000     0.636450000000     0.0425857  
H141     H      0.136370000000     0.502590000000     0.715970000000     0.0958512  
H142     H      0.133300000000     0.052510000000     0.755660000000     0.0731268  
H143     H      0.112140000000     0.035700000000     0.808450000000     0.051828   
H144     H      0.168980000000     0.474730000000     0.722000000000     0.0856623  
H145     H      0.146150000000     0.458400000000     0.773590000000    -0.00418715 
H146     H      0.164980000000     0.055740000000     0.785530000000     0.069297   
H147     H      0.145010000000     0.007470000000     0.812990000000     0.0489054  
H148     H      0.378500000000     0.508250000000     0.813680000000     0.0852038  
H149     H      0.385690000000     0.060250000000     0.776220000000     0.0492795  
H150     H      0.424850000000     0.049390000000     0.733110000000     0.0473844  
H151     H      0.355260000000     0.475910000000     0.797370000000     0.0851776  
H152     H      0.396110000000     0.465380000000     0.756970000000     0.00801438 
H153     H      0.364670000000     0.059380000000     0.738120000000     0.0617261  
H154     H      0.400380000000     0.016790000000     0.718350000000     0.0530145  
H155     H      0.512880000000     0.369570000000     0.710620000000     0.0919207  
H156     H      0.062190000000     0.374090000000     0.754870000000     0.0631308  
H157     H      0.046290000000     0.404540000000     0.803290000000     0.049527   
H158     H      0.478170000000     0.347180000000     0.723330000000     0.0861972  
H159     H      0.464240000000     0.385600000000     0.763400000000     0.00665351 
H160     H      0.058170000000     0.348480000000     0.789560000000     0.0473864  
H161     H      0.010870000000     0.379570000000     0.808370000000     0.0468084  
H162     H      0.035090000000     0.137130000000     0.721530000000     0.102519   
H163     H      0.478630000000     0.134640000000     0.759020000000     0.058974   
H164     H      0.485830000000     0.099030000000     0.805540000000     0.0450152  
H165     H      0.068790000000     0.156160000000     0.740730000000     0.0898993  
H166     H      0.073600000000     0.114880000000     0.779970000000    -0.00562393 
H167     H      0.480970000000     0.157430000000     0.795760000000     0.0633675  
H168     H      0.521850000000     0.120520000000     0.817700000000     0.047357   
H169     H      0.385190000000     0.756880000000     0.464890000000     0.0898194  
H170     H      0.382660000000     0.723950000000     0.523270000000     0.0469544  
H171     H      0.420200000000     0.750190000000     0.059320000000     0.0392233  
H172     H      0.361350000000     0.792910000000     0.464000000000     0.0851567  
H173     H      0.397060000000     0.818620000000     0.003240000000    -0.00404338 
H174     H      0.359260000000     0.743000000000     0.054060000000     0.0487405  
H175     H      0.397210000000     0.786610000000     0.057780000000     0.0406937  
H176     H      0.138020000000     0.753050000000     0.459190000000     0.0845641  
H177     H      0.136140000000     0.791570000000     0.010760000000     0.0565866  
H178     H      0.110720000000     0.765050000000     0.057310000000     0.0395038  
H179     H      0.166640000000     0.720530000000     0.460880000000     0.0836743  
H180     H      0.136750000000     0.694980000000     0.504420000000     0.00108922 
H181     H      0.165600000000     0.784780000000     0.041740000000     0.0674751  
H182     H      0.139950000000     0.733180000000     0.054770000000     0.0440767  
H183     H      0.259820000000     0.888210000000     0.052910000000     0.0865742  
H184     H      0.308910000000     0.886890000000     0.009040000000     0.04905    
H185     H      0.293190000000     0.854390000000     0.462300000000     0.0406134  
H186     H      0.225270000000     0.912190000000     0.042720000000     0.0852425  
H187     H      0.211070000000     0.877090000000     0.498800000000    -0.00552727 
H188     H      0.303590000000     0.912400000000     0.474460000000     0.0454531  
H189     H      0.258200000000     0.879460000000     0.455170000000     0.0409038  
H190     H      0.276060000000     0.641020000000     0.053750000000     0.0898973  
H191     H      0.314480000000     0.641760000000     0.001230000000     0.0444671  
H192     H      0.294020000000     0.601770000000     0.464920000000     0.0443838  
H193     H      0.239110000000     0.664010000000     0.051180000000     0.089685   
H194     H      0.216720000000     0.627260000000     0.510940000000    -6.0398e-05 
H195     H      0.299080000000     0.662250000000     0.466640000000     0.0476418  
H196     H      0.256890000000     0.623200000000     0.459050000000     0.0431539  
H197     H      0.202790000000     0.007950000000     0.389510000000     0.0839716  
H198     H      0.246020000000     0.961010000000     0.387070000000     0.0459326  
H199     H      0.291060000000     0.975980000000     0.352550000000     0.040951   
H200     H      0.212190000000     0.541120000000     0.415670000000     0.0830724  
H201     H      0.257160000000     0.557660000000     0.380880000000    -0.00468527 
H202     H      0.281800000000     0.965000000000     0.411470000000     0.0443241  
H203     H      0.301290000000     0.508780000000     0.378280000000     0.0407979  
H204     H      0.323530000000     0.014990000000     0.125110000000     0.085895   
H205     H      0.283830000000     0.964970000000     0.127860000000     0.0481973  
H206     H      0.238260000000     0.975980000000     0.163310000000     0.0433196  
H207     H      0.310680000000     0.547920000000     0.100130000000     0.0866179  
H208     H      0.265950000000     0.560430000000     0.136750000000     0.00994644 
H209     H      0.247330000000     0.966750000000     0.104280000000     0.0469665  
H210     H      0.225470000000     0.508650000000     0.138580000000     0.0488588  
H211     H      0.511000000000     0.708370000000     0.392590000000     0.0922279  
H212     H      0.063470000000     0.747820000000     0.395440000000     0.056167   
H213     H      0.055550000000     0.788940000000     0.355620000000     0.041756   
H214     H      0.475720000000     0.721500000000     0.414680000000     0.0917868  
H215     H      0.467690000000     0.766370000000     0.377600000000     0.00785099 
H216     H      0.057790000000     0.784680000000     0.416520000000     0.0511239  
H217     H      0.020610000000     0.804080000000     0.376300000000     0.0445307  
H218     H      0.472710000000     0.750940000000     0.135410000000     0.0862897  
H219     H      0.016250000000     0.798860000000     0.135670000000     0.0480982  
H220     H      0.065320000000     0.781720000000     0.164420000000     0.0431193  
H221     H      0.479720000000     0.718860000000     0.107670000000     0.0870402  
H222     H      0.528490000000     0.702940000000     0.136840000000    -0.000599441
H223     H      0.049410000000     0.795480000000     0.107470000000     0.0463313  
H224     H      0.071310000000     0.749230000000     0.136450000000     0.0426359  
H225     H      0.136370000000     0.002590000000     0.215970000000     0.0851908  
H226     H      0.133300000000     0.552510000000     0.255660000000     0.0743805  
H227     H      0.112140000000     0.535700000000     0.308450000000     0.0513811  
H228     H      0.168980000000     0.974730000000     0.222000000000     0.0837587  
H229     H      0.146150000000     0.958400000000     0.273590000000    -0.00178961 
H230     H      0.164980000000     0.555740000000     0.285530000000     0.0695551  
H231     H      0.145010000000     0.507470000000     0.312990000000     0.0500726  
H232     H      0.378500000000     0.008250000000     0.313680000000     0.0755976  
H233     H      0.385690000000     0.560250000000     0.276220000000     0.0495337  
H234     H      0.424850000000     0.549390000000     0.233110000000     0.0475129  
H235     H      0.355260000000     0.975910000000     0.297370000000     0.0833581  
H236     H      0.396110000000     0.965380000000     0.256970000000     0.00955513 
H237     H      0.364670000000     0.559380000000     0.238120000000     0.0617685  
H238     H      0.400380000000     0.516790000000     0.218350000000     0.0551284  
H239     H      0.512880000000     0.869570000000     0.210620000000     0.0924547  
H240     H      0.062190000000     0.874090000000     0.254870000000     0.0634746  
H241     H      0.046290000000     0.904540000000     0.303290000000     0.0504445  
H242     H      0.478170000000     0.847180000000     0.223330000000     0.0864791  
H243     H      0.464240000000     0.885600000000     0.263400000000     0.00712809 
H244     H      0.058170000000     0.848480000000     0.289560000000     0.0476084  
H245     H      0.010870000000     0.879570000000     0.308370000000     0.0473898  
H246     H      0.035090000000     0.637130000000     0.221530000000     0.102704   
H247     H      0.478630000000     0.634630000000     0.259020000000     0.0590107  
H248     H      0.485830000000     0.599030000000     0.305540000000     0.0451997  
H249     H      0.068790000000     0.656160000000     0.240730000000     0.0899582  
H250     H      0.073600000000     0.614880000000     0.279970000000    -0.00553345 
H251     H      0.480970000000     0.657430000000     0.295760000000     0.0634022  
H252     H      0.521850000000     0.620520000000     0.317700000000     0.0475422  
H253     H      0.385190000000     0.756880000000     0.964890000000     0.0898513  
H254     H      0.382660000000     0.723950000000     0.023270000000     0.0469224  
H255     H      0.420200000000     0.750190000000     0.559320000000     0.0392305  
H256     H      0.361350000000     0.792910000000     0.964000000000     0.0851791  
H257     H      0.397060000000     0.818620000000     0.503240000000    -0.00385716 
H258     H      0.359260000000     0.743000000000     0.554060000000     0.0487392  
H259     H      0.397210000000     0.786610000000     0.557790000000     0.0406905  
H260     H      0.138020000000     0.753050000000     0.959190000000     0.084612   
H261     H      0.136140000000     0.791570000000     0.510760000000     0.0566044  
H262     H      0.110720000000     0.765050000000     0.557310000000     0.0395129  
H263     H      0.166640000000     0.720530000000     0.960880000000     0.0837246  
H264     H      0.136750000000     0.694980000000     0.004430000000     0.000919232
H265     H      0.165600000000     0.784780000000     0.541740000000     0.0674511  
H266     H      0.139950000000     0.733180000000     0.554770000000     0.0440986  
H267     H      0.259820000000     0.888210000000     0.552910000000     0.0865991  
H268     H      0.308910000000     0.886890000000     0.509040000000     0.0492443  
H269     H      0.293190000000     0.854390000000     0.962300000000     0.0406547  
H270     H      0.225270000000     0.912190000000     0.542720000000     0.0852778  
H271     H      0.211070000000     0.877090000000     0.998800000000    -0.00532425 
H272     H      0.303590000000     0.912400000000     0.974460000000     0.0454293  
H273     H      0.258200000000     0.879460000000     0.955170000000     0.0409417  
H274     H      0.276060000000     0.641020000000     0.553750000000     0.0899026  
H275     H      0.314480000000     0.641760000000     0.501240000000     0.0446543  
H276     H      0.294020000000     0.601770000000     0.964920000000     0.0444139  
H277     H      0.239110000000     0.664010000000     0.551180000000     0.0896864  
H278     H      0.216720000000     0.627260000000     0.010940000000    -0.000101446
H279     H      0.299080000000     0.662250000000     0.966640000000     0.0476065  
H280     H      0.256890000000     0.623200000000     0.959050000000     0.0431835  
H281     H      0.202790000000     0.007950000000     0.889510000000     0.0839871  
H282     H      0.246020000000     0.961010000000     0.887070000000     0.0459443  
H283     H      0.291060000000     0.975980000000     0.852550000000     0.0409538  
H284     H      0.212190000000     0.541120000000     0.915670000000     0.0831026  
H285     H      0.257160000000     0.557660000000     0.880880000000    -0.00467877 
H286     H      0.281800000000     0.965000000000     0.911470000000     0.0443455  
H287     H      0.301290000000     0.508780000000     0.878280000000     0.0408052  
H288     H      0.323530000000     0.014990000000     0.625110000000     0.0858989  
H289     H      0.283830000000     0.964970000000     0.627860000000     0.0481993  
H290     H      0.238260000000     0.975980000000     0.663310000000     0.0433186  
H291     H      0.310680000000     0.547920000000     0.600130000000     0.0866246  
H292     H      0.265950000000     0.560430000000     0.636750000000     0.00994653 
H293     H      0.247330000000     0.966750000000     0.604280000000     0.0469692  
H294     H      0.225470000000     0.508650000000     0.638570000000     0.048859   
H295     H      0.511000000000     0.708370000000     0.892590000000     0.0922275  
H296     H      0.063470000000     0.747820000000     0.895440000000     0.0561761  
H297     H      0.055550000000     0.788940000000     0.855620000000     0.0417532  
H298     H      0.475720000000     0.721500000000     0.914680000000     0.0917925  
H299     H      0.467690000000     0.766370000000     0.877600000000     0.00788252 
H300     H      0.057790000000     0.784680000000     0.916520000000     0.0511434  
H301     H      0.020610000000     0.804080000000     0.876300000000     0.0445377  
H302     H      0.472710000000     0.750940000000     0.635410000000     0.0862915  
H303     H      0.016250000000     0.798860000000     0.635670000000     0.0481011  
H304     H      0.065320000000     0.781720000000     0.664420000000     0.0431191  
H305     H      0.479720000000     0.718860000000     0.607670000000     0.0870488  
H306     H      0.528490000000     0.702940000000     0.636850000000    -0.000617232
H307     H      0.049410000000     0.795480000000     0.607470000000     0.0463348  
H308     H      0.071310000000     0.749230000000     0.636450000000     0.0426364  
H309     H      0.136370000000     0.002590000000     0.715970000000     0.0851925  
H310     H      0.133300000000     0.552510000000     0.755660000000     0.0743804  
H311     H      0.112140000000     0.535700000000     0.808450000000     0.0513863  
H312     H      0.168980000000     0.974730000000     0.722000000000     0.083759   
H313     H      0.146150000000     0.958400000000     0.773590000000    -0.00178866 
H314     H      0.164980000000     0.555740000000     0.785530000000     0.069556   
H315     H      0.145010000000     0.507470000000     0.812990000000     0.0500773  
H316     H      0.378500000000     0.008250000000     0.813680000000     0.0756042  
H317     H      0.385690000000     0.560250000000     0.776220000000     0.0495357  
H318     H      0.424850000000     0.549390000000     0.733110000000     0.047514   
H319     H      0.355260000000     0.975910000000     0.797370000000     0.0833602  
H320     H      0.396110000000     0.965380000000     0.756970000000     0.00955331 
H321     H      0.364670000000     0.559380000000     0.738120000000     0.0617685  
H322     H      0.400380000000     0.516790000000     0.718350000000     0.0551297  
H323     H      0.512880000000     0.869570000000     0.710620000000     0.0924485  
H324     H      0.062190000000     0.874090000000     0.754870000000     0.0634743  
H325     H      0.046290000000     0.904540000000     0.803290000000     0.0504503  
H326     H      0.478170000000     0.847180000000     0.723330000000     0.0864674  
H327     H      0.464240000000     0.885600000000     0.763400000000     0.00715888 
H328     H      0.058170000000     0.848480000000     0.789560000000     0.0476087  
H329     H      0.010870000000     0.879570000000     0.808370000000     0.0473963  
H330     H      0.035090000000     0.637130000000     0.721530000000     0.102705   
H331     H      0.478630000000     0.634630000000     0.759020000000     0.0590111  
H332     H      0.485830000000     0.599030000000     0.805540000000     0.0452048  
H333     H      0.068790000000     0.656160000000     0.740730000000     0.0899581  
H334     H      0.073600000000     0.614880000000     0.779970000000    -0.00553158 
H335     H      0.480970000000     0.657430000000     0.795760000000     0.0634065  
H336     H      0.521850000000     0.620520000000     0.817700000000     0.0475491  
H337     H      0.885190000000     0.256880000000     0.464890000000     0.0897833  
H338     H      0.882660000000     0.223950000000     0.523270000000     0.0469106  
H339     H      0.920200000000     0.250190000000     0.059320000000     0.0391555  
H340     H      0.861340000000     0.292910000000     0.464000000000     0.0849719  
H341     H      0.897060000000     0.318620000000     0.003240000000    -0.00449398 
H342     H      0.859260000000     0.243000000000     0.054060000000     0.0486952  
H343     H      0.897210000000     0.286610000000     0.057780000000     0.0404515  
H344     H      0.638020000000     0.253050000000     0.459190000000     0.0844584  
H345     H      0.636140000000     0.291570000000     0.010760000000     0.0562939  
H346     H      0.610720000000     0.265050000000     0.057310000000     0.0393727  
H347     H      0.666640000000     0.220530000000     0.460880000000     0.0836374  
H348     H      0.636750000000     0.194980000000     0.504420000000     0.00097633 
H349     H      0.665600000000     0.284780000000     0.041740000000     0.0672976  
H350     H      0.639950000000     0.233180000000     0.054770000000     0.0440299  
H351     H      0.759820000000     0.388210000000     0.052910000000     0.086019   
H352     H      0.808910000000     0.386890000000     0.009040000000     0.0484029  
H353     H      0.793190000000     0.354390000000     0.462300000000     0.0403609  
H354     H      0.725270000000     0.412190000000     0.042720000000     0.0841414  
H355     H      0.711070000000     0.377090000000     0.498800000000    -0.00621159 
H356     H      0.803590000000     0.412400000000     0.474460000000     0.0443291  
H357     H      0.758210000000     0.379460000000     0.455170000000     0.0403404  
H358     H      0.776070000000     0.141020000000     0.053750000000     0.0898149  
H359     H      0.814480000000     0.141760000000     0.001230000000     0.0443252  
H360     H      0.794020000000     0.101770000000     0.464920000000     0.0442078  
H361     H      0.739110000000     0.164010000000     0.051180000000     0.0896346  
H362     H      0.716720000000     0.127260000000     0.510940000000    -0.000188659
H363     H      0.799080000000     0.162250000000     0.466640000000     0.0475959  
H364     H      0.756890000000     0.123200000000     0.459050000000     0.0431296  
H365     H      0.702790000000     0.507950000000     0.389510000000     0.08628    
H366     H      0.746020000000     0.461010000000     0.387070000000     0.0443281  
H367     H      0.791060000000     0.475980000000     0.352550000000     0.0426953  
H368     H      0.712190000000     0.041120000000     0.415670000000     0.0828231  
H369     H      0.757160000000     0.057660000000     0.380880000000    -0.00481493 
H370     H      0.781800000000     0.465000000000     0.411470000000     0.0421335  
H371     H      0.801290000000     0.008780000000     0.378280000000     0.0314063  
H372     H      0.823530000000     0.514990000000     0.125110000000     0.0881097  
H373     H      0.783830000000     0.464970000000     0.127860000000     0.0464983  
H374     H      0.738260000000     0.475970000000     0.163310000000     0.04511    
H375     H      0.810680000000     0.047920000000     0.100130000000     0.0864154  
H376     H      0.765950000000     0.060430000000     0.136750000000     0.00977257 
H377     H      0.747330000000     0.466750000000     0.104280000000     0.044768   
H378     H      0.725470000000     0.008650000000     0.138580000000     0.0393306  
H379     H      0.011000000000     0.208370000000     0.392590000000     0.0919143  
H380     H      0.563470000000     0.247820000000     0.395440000000     0.0561384  
H381     H      0.555550000000     0.288950000000     0.355620000000     0.0415598  
H382     H      0.975720000000     0.221500000000     0.414680000000     0.0916725  
H383     H      0.967690000000     0.266370000000     0.377600000000     0.00776196 
H384     H      0.557790000000     0.284680000000     0.416520000000     0.0508985  
H385     H      0.520610000000     0.304080000000     0.376300000000     0.0442235  
H386     H      0.972710000000     0.250940000000     0.135410000000     0.0861113  
H387     H      0.516250000000     0.298870000000     0.135670000000     0.0478321  
H388     H      0.565320000000     0.281720000000     0.164420000000     0.0429284  
H389     H      0.979720000000     0.218860000000     0.107670000000     0.0868763  
H390     H      0.028490000000     0.202940000000     0.136840000000    -0.000660817
H391     H      0.549410000000     0.295490000000     0.107470000000     0.0460074  
H392     H      0.571310000000     0.249230000000     0.136450000000     0.0425403  
H393     H      0.636370000000     0.502590000000     0.215970000000     0.0958436  
H394     H      0.633300000000     0.052510000000     0.255660000000     0.0731251  
H395     H      0.612140000000     0.035700000000     0.308450000000     0.0518254  
H396     H      0.668980000000     0.474730000000     0.222000000000     0.0856386  
H397     H      0.646150000000     0.458400000000     0.273590000000    -0.00417029 
H398     H      0.664980000000     0.055740000000     0.285530000000     0.0692947  
H399     H      0.645010000000     0.007470000000     0.312990000000     0.0489016  
H400     H      0.878500000000     0.508250000000     0.313680000000     0.0852092  
H401     H      0.885690000000     0.060250000000     0.276220000000     0.0492845  
H402     H      0.924850000000     0.049390000000     0.233110000000     0.0474189  
H403     H      0.855260000000     0.475910000000     0.297370000000     0.085184   
H404     H      0.896110000000     0.465380000000     0.256970000000     0.00803364 
H405     H      0.864670000000     0.059380000000     0.238120000000     0.0617309  
H406     H      0.900380000000     0.016790000000     0.218350000000     0.0530394  
H407     H      0.012880000000     0.369570000000     0.210620000000     0.0917283  
H408     H      0.562190000000     0.374090000000     0.254870000000     0.0631844  
H409     H      0.546290000000     0.404540000000     0.303290000000     0.0494981  
H410     H      0.978180000000     0.347180000000     0.223330000000     0.0862091  
H411     H      0.964240000000     0.385600000000     0.263400000000     0.00664755 
H412     H      0.558170000000     0.348480000000     0.289560000000     0.0474353  
H413     H      0.510870000000     0.379570000000     0.308370000000     0.0468293  
H414     H      0.535090000000     0.137130000000     0.221530000000     0.102562   
H415     H      0.978630000000     0.134640000000     0.259020000000     0.0589225  
H416     H      0.985830000000     0.099030000000     0.305540000000     0.0452762  
H417     H      0.568790000000     0.156160000000     0.240730000000     0.0898956  
H418     H      0.573600000000     0.114880000000     0.279970000000    -0.00562335 
H419     H      0.980970000000     0.157430000000     0.295760000000     0.063312   
H420     H      0.021850000000     0.120520000000     0.317700000000     0.047437   
H421     H      0.885190000000     0.256880000000     0.964890000000     0.0898153  
H422     H      0.882660000000     0.223950000000     0.023270000000     0.0468786  
H423     H      0.920200000000     0.250190000000     0.559320000000     0.0391627  
H424     H      0.861340000000     0.292910000000     0.964000000000     0.0849945  
H425     H      0.897060000000     0.318620000000     0.503240000000    -0.00430708 
H426     H      0.859260000000     0.243000000000     0.554060000000     0.0486938  
H427     H      0.897210000000     0.286610000000     0.557790000000     0.0404483  
H428     H      0.638020000000     0.253050000000     0.959190000000     0.0845064  
H429     H      0.636140000000     0.291570000000     0.510760000000     0.0563118  
H430     H      0.610720000000     0.265050000000     0.557310000000     0.0393818  
H431     H      0.666640000000     0.220530000000     0.960880000000     0.0836877  
H432     H      0.636750000000     0.194980000000     0.004430000000     0.000805953
H433     H      0.665600000000     0.284780000000     0.541740000000     0.0672736  
H434     H      0.639950000000     0.233180000000     0.554770000000     0.0440519  
H435     H      0.759820000000     0.388210000000     0.552910000000     0.086044   
H436     H      0.808910000000     0.386890000000     0.509040000000     0.0485983  
H437     H      0.793190000000     0.354390000000     0.962300000000     0.0404024  
H438     H      0.725270000000     0.412190000000     0.542720000000     0.0841769  
H439     H      0.711070000000     0.377090000000     0.998800000000    -0.0060074  
H440     H      0.803590000000     0.412400000000     0.974460000000     0.0443053  
H441     H      0.758210000000     0.379460000000     0.955170000000     0.0403786  
H442     H      0.776070000000     0.141020000000     0.553750000000     0.0898202  
H443     H      0.814480000000     0.141760000000     0.501240000000     0.0445127  
H444     H      0.794020000000     0.101770000000     0.964920000000     0.0442379  
H445     H      0.739110000000     0.164010000000     0.551180000000     0.089636   
H446     H      0.716720000000     0.127260000000     0.010940000000    -0.000229714
H447     H      0.799080000000     0.162250000000     0.966640000000     0.0475605  
H448     H      0.756890000000     0.123200000000     0.959050000000     0.0431592  
H449     H      0.702790000000     0.507950000000     0.889510000000     0.0862953  
H450     H      0.746020000000     0.461010000000     0.887070000000     0.04434    
H451     H      0.791060000000     0.475980000000     0.852550000000     0.042698   
H452     H      0.712190000000     0.041120000000     0.915670000000     0.0828533  
H453     H      0.757160000000     0.057660000000     0.880880000000    -0.00480844 
H454     H      0.781800000000     0.465000000000     0.911470000000     0.0421554  
H455     H      0.801290000000     0.008780000000     0.878280000000     0.0314142  
H456     H      0.823530000000     0.514990000000     0.625110000000     0.0881136  
H457     H      0.783830000000     0.464970000000     0.627860000000     0.0465007  
H458     H      0.738260000000     0.475970000000     0.663310000000     0.0451082  
H459     H      0.810680000000     0.047920000000     0.600130000000     0.086422   
H460     H      0.765950000000     0.060430000000     0.636750000000     0.00977266 
H461     H      0.747330000000     0.466750000000     0.604280000000     0.0447711  
H462     H      0.725470000000     0.008650000000     0.638570000000     0.0393334  
H463     H      0.011000000000     0.208370000000     0.892590000000     0.091914   
H464     H      0.563470000000     0.247820000000     0.895440000000     0.0561476  
H465     H      0.555550000000     0.288950000000     0.855620000000     0.0415569  
H466     H      0.975720000000     0.221500000000     0.914680000000     0.0916783  
H467     H      0.967690000000     0.266370000000     0.877600000000     0.00779351 
H468     H      0.557790000000     0.284680000000     0.916520000000     0.050918   
H469     H      0.520610000000     0.304080000000     0.876300000000     0.0442305  
H470     H      0.972710000000     0.250940000000     0.635410000000     0.0861131  
H471     H      0.516250000000     0.298870000000     0.635670000000     0.047835   
H472     H      0.565320000000     0.281720000000     0.664420000000     0.0429281  
H473     H      0.979720000000     0.218860000000     0.607670000000     0.0868849  
H474     H      0.028490000000     0.202940000000     0.636850000000    -0.000678555
H475     H      0.549410000000     0.295490000000     0.607470000000     0.0460109  
H476     H      0.571310000000     0.249230000000     0.636450000000     0.0425409  
H477     H      0.636370000000     0.502590000000     0.715970000000     0.095845   
H478     H      0.633300000000     0.052510000000     0.755660000000     0.0731251  
H479     H      0.612140000000     0.035700000000     0.808450000000     0.0518306  
H480     H      0.668980000000     0.474730000000     0.722000000000     0.0856389  
H481     H      0.646150000000     0.458400000000     0.773590000000    -0.00416921 
H482     H      0.664980000000     0.055740000000     0.785530000000     0.0692956  
H483     H      0.645010000000     0.007470000000     0.812990000000     0.0489063  
H484     H      0.878500000000     0.508250000000     0.813680000000     0.0852154  
H485     H      0.885690000000     0.060250000000     0.776220000000     0.0492865  
H486     H      0.924850000000     0.049390000000     0.733110000000     0.0474201  
H487     H      0.855260000000     0.475910000000     0.797370000000     0.0851861  
H488     H      0.896110000000     0.465380000000     0.756970000000     0.00803189 
H489     H      0.864670000000     0.059380000000     0.738120000000     0.0617308  
H490     H      0.900380000000     0.016790000000     0.718350000000     0.0530408  
H491     H      0.012880000000     0.369570000000     0.710620000000     0.0917221  
H492     H      0.562190000000     0.374090000000     0.754870000000     0.0631842  
H493     H      0.546290000000     0.404540000000     0.803290000000     0.0495039  
H494     H      0.978180000000     0.347180000000     0.723330000000     0.0861973  
H495     H      0.964240000000     0.385600000000     0.763400000000     0.00667844 
H496     H      0.558170000000     0.348480000000     0.789560000000     0.0474357  
H497     H      0.510870000000     0.379570000000     0.808370000000     0.0468359  
H498     H      0.535090000000     0.137130000000     0.721530000000     0.102563   
H499     H      0.978630000000     0.134640000000     0.759020000000     0.0589228  
H500     H      0.985830000000     0.099030000000     0.805540000000     0.0452813  
H501     H      0.568790000000     0.156160000000     0.740730000000     0.0898955  
H502     H      0.573600000000     0.114880000000     0.779970000000    -0.00562148 
H503     H      0.980970000000     0.157430000000     0.795760000000     0.0633163  
H504     H      0.021850000000     0.120520000000     0.817700000000     0.0474439  
H505     H      0.885190000000     0.756880000000     0.464890000000     0.0898177  
H506     H      0.882660000000     0.723950000000     0.523270000000     0.0469649  
H507     H      0.920200000000     0.750190000000     0.059320000000     0.0392444  
H508     H      0.861340000000     0.792910000000     0.464000000000     0.0851344  
H509     H      0.897060000000     0.818620000000     0.003240000000    -0.00402384 
H510     H      0.859260000000     0.743000000000     0.054060000000     0.0487452  
H511     H      0.897210000000     0.786610000000     0.057780000000     0.0407094  
H512     H      0.638020000000     0.753050000000     0.459190000000     0.084565   
H513     H      0.636140000000     0.791570000000     0.010760000000     0.056589   
H514     H      0.610720000000     0.765050000000     0.057310000000     0.0395002  
H515     H      0.666640000000     0.720530000000     0.460880000000     0.0836731  
H516     H      0.636750000000     0.694980000000     0.504420000000     0.00109187 
H517     H      0.665600000000     0.784780000000     0.041740000000     0.0674716  
H518     H      0.639950000000     0.733180000000     0.054770000000     0.0440761  
H519     H      0.759820000000     0.888210000000     0.052910000000     0.0865775  
H520     H      0.808910000000     0.886890000000     0.009040000000     0.0490593  
H521     H      0.793190000000     0.854390000000     0.462300000000     0.0406216  
H522     H      0.725270000000     0.912190000000     0.042720000000     0.0852447  
H523     H      0.711070000000     0.877090000000     0.498800000000    -0.00552542 
H524     H      0.803590000000     0.912400000000     0.474460000000     0.0454582  
H525     H      0.758210000000     0.879460000000     0.455170000000     0.0409049  
H526     H      0.776070000000     0.641020000000     0.053750000000     0.0898626  
H527     H      0.814480000000     0.641760000000     0.001230000000     0.0444729  
H528     H      0.794020000000     0.601770000000     0.464920000000     0.0443893  
H529     H      0.739110000000     0.664010000000     0.051180000000     0.0896702  
H530     H      0.716720000000     0.627260000000     0.510940000000    -5.55499e-05
H531     H      0.799080000000     0.662250000000     0.466640000000     0.0476448  
H532     H      0.756890000000     0.623200000000     0.459050000000     0.0431542  
H533     H      0.702790000000     0.007950000000     0.389510000000     0.0839764  
H534     H      0.746020000000     0.961010000000     0.387070000000     0.0459342  
H535     H      0.791060000000     0.975980000000     0.352550000000     0.0409642  
H536     H      0.712190000000     0.541120000000     0.415670000000     0.0830828  
H537     H      0.757160000000     0.557660000000     0.380880000000    -0.00468231 
H538     H      0.781800000000     0.965000000000     0.411470000000     0.0443336  
H539     H      0.801290000000     0.508780000000     0.378280000000     0.0408065  
H540     H      0.823530000000     0.014990000000     0.125110000000     0.0859072  
H541     H      0.783830000000     0.964970000000     0.127860000000     0.0482031  
H542     H      0.738260000000     0.975980000000     0.163310000000     0.0433082  
H543     H      0.810680000000     0.547920000000     0.100130000000     0.0866255  
H544     H      0.765950000000     0.560430000000     0.136750000000     0.00994542 
H545     H      0.747330000000     0.966750000000     0.104280000000     0.046968   
H546     H      0.725470000000     0.508650000000     0.138580000000     0.0488565  
H547     H      0.011000000000     0.708370000000     0.392590000000     0.0920028  
H548     H      0.563470000000     0.747820000000     0.395440000000     0.0561772  
H549     H      0.555550000000     0.788940000000     0.355620000000     0.0417514  
H550     H      0.975720000000     0.721500000000     0.414680000000     0.0917592  
H551     H      0.967690000000     0.766370000000     0.377600000000     0.00789129 
H552     H      0.557790000000     0.784680000000     0.416520000000     0.051142   
H553     H      0.520610000000     0.804080000000     0.376300000000     0.0445737  
H554     H      0.972710000000     0.750940000000     0.135410000000     0.0862088  
H555     H      0.516250000000     0.798860000000     0.135670000000     0.0481743  
H556     H      0.565320000000     0.781720000000     0.164420000000     0.0430828  
H557     H      0.979720000000     0.718860000000     0.107670000000     0.0869791  
H558     H      0.028490000000     0.702940000000     0.136840000000    -0.000544549
H559     H      0.549410000000     0.795480000000     0.107470000000     0.0463509  
H560     H      0.571310000000     0.749230000000     0.136450000000     0.042591   
H561     H      0.636370000000     0.002590000000     0.215970000000     0.0851843  
H562     H      0.633300000000     0.552510000000     0.255660000000     0.0743793  
H563     H      0.612140000000     0.535700000000     0.308450000000     0.0513833  
H564     H      0.668980000000     0.974730000000     0.222000000000     0.0837348  
H565     H      0.646150000000     0.958400000000     0.273590000000    -0.00177154 
H566     H      0.664980000000     0.555740000000     0.285530000000     0.0695544  
H567     H      0.645010000000     0.507470000000     0.312990000000     0.0500733  
H568     H      0.878500000000     0.008250000000     0.313680000000     0.0756097  
H569     H      0.885690000000     0.560250000000     0.276220000000     0.0495409  
H570     H      0.924850000000     0.549390000000     0.233110000000     0.0475481  
H571     H      0.855260000000     0.975910000000     0.297370000000     0.0833666  
H572     H      0.896110000000     0.965380000000     0.256970000000     0.00957273 
H573     H      0.864670000000     0.559380000000     0.238120000000     0.0617734  
H574     H      0.900380000000     0.516790000000     0.218350000000     0.0551541  
H575     H      0.012880000000     0.869570000000     0.210620000000     0.0922569  
H576     H      0.562190000000     0.874090000000     0.254870000000     0.0635279  
H577     H      0.546290000000     0.904540000000     0.303290000000     0.0504214  
H578     H      0.978180000000     0.847180000000     0.223330000000     0.0864794  
H579     H      0.964240000000     0.885600000000     0.263400000000     0.00715287 
H580     H      0.558170000000     0.848480000000     0.289560000000     0.0476577  
H581     H      0.510870000000     0.879570000000     0.308370000000     0.0474172  
H582     H      0.535090000000     0.637130000000     0.221530000000     0.102748   
H583     H      0.978630000000     0.634630000000     0.259020000000     0.0589596  
H584     H      0.985830000000     0.599030000000     0.305540000000     0.0454658  
H585     H      0.568790000000     0.656160000000     0.240730000000     0.0899544  
H586     H      0.573600000000     0.614880000000     0.279970000000    -0.00553103 
H587     H      0.980970000000     0.657430000000     0.295760000000     0.063351   
H588     H      0.021850000000     0.620520000000     0.317700000000     0.0476291  
H589     H      0.885190000000     0.756880000000     0.964890000000     0.0898496  
H590     H      0.882660000000     0.723950000000     0.023270000000     0.046933   
H591     H      0.920200000000     0.750190000000     0.559320000000     0.0392516  
H592     H      0.861340000000     0.792910000000     0.964000000000     0.0851569  
H593     H      0.897060000000     0.818620000000     0.503240000000    -0.00383764 
H594     H      0.859260000000     0.743000000000     0.554060000000     0.0487439  
H595     H      0.897210000000     0.786610000000     0.557790000000     0.0407062  
H596     H      0.638020000000     0.753050000000     0.959190000000     0.0846129  
H597     H      0.636140000000     0.791570000000     0.510760000000     0.0566068  
H598     H      0.610720000000     0.765050000000     0.557310000000     0.0395094  
H599     H      0.666640000000     0.720530000000     0.960880000000     0.0837233  
H600     H      0.636750000000     0.694980000000     0.004430000000     0.000921887
H601     H      0.665600000000     0.784780000000     0.541740000000     0.0674476  
H602     H      0.639950000000     0.733180000000     0.554770000000     0.044098   
H603     H      0.759820000000     0.888210000000     0.552910000000     0.0866024  
H604     H      0.808910000000     0.886890000000     0.509040000000     0.0492537  
H605     H      0.793190000000     0.854390000000     0.962300000000     0.0406629  
H606     H      0.725270000000     0.912190000000     0.542720000000     0.08528    
H607     H      0.711070000000     0.877090000000     0.998800000000    -0.00532241 
H608     H      0.803590000000     0.912400000000     0.974460000000     0.0454344  
H609     H      0.758210000000     0.879460000000     0.955170000000     0.0409428  
H610     H      0.776070000000     0.641020000000     0.553750000000     0.0898679  
H611     H      0.814480000000     0.641760000000     0.501240000000     0.0446602  
H612     H      0.794020000000     0.601770000000     0.964920000000     0.0444194  
H613     H      0.739110000000     0.664010000000     0.551180000000     0.0896716  
H614     H      0.716720000000     0.627260000000     0.010940000000    -9.65984e-05
H615     H      0.799080000000     0.662250000000     0.966640000000     0.0476095  
H616     H      0.756890000000     0.623200000000     0.959050000000     0.0431838  
H617     H      0.702790000000     0.007950000000     0.889510000000     0.0839919  
H618     H      0.746020000000     0.961010000000     0.887070000000     0.0459459  
H619     H      0.791060000000     0.975980000000     0.852550000000     0.040967   
H620     H      0.712190000000     0.541120000000     0.915670000000     0.0831129  
H621     H      0.757160000000     0.557660000000     0.880880000000    -0.00467581 
H622     H      0.781800000000     0.965000000000     0.911470000000     0.044355   
H623     H      0.801290000000     0.508780000000     0.878280000000     0.0408137  
H624     H      0.823530000000     0.014990000000     0.625110000000     0.085911   
H625     H      0.783830000000     0.964970000000     0.627860000000     0.0482051  
H626     H      0.738260000000     0.975980000000     0.663310000000     0.0433071  
H627     H      0.810680000000     0.547920000000     0.600130000000     0.0866322  
H628     H      0.765950000000     0.560430000000     0.636750000000     0.00994551 
H629     H      0.747330000000     0.966750000000     0.604280000000     0.0469707  
H630     H      0.725470000000     0.508650000000     0.638570000000     0.0488567  
H631     H      0.011000000000     0.708370000000     0.892590000000     0.0920025  
H632     H      0.563470000000     0.747820000000     0.895440000000     0.0561863  
H633     H      0.555550000000     0.788940000000     0.855620000000     0.0417485  
H634     H      0.975720000000     0.721500000000     0.914680000000     0.091765   
H635     H      0.967690000000     0.766370000000     0.877600000000     0.00792281 
H636     H      0.557790000000     0.784680000000     0.916520000000     0.0511614  
H637     H      0.520610000000     0.804080000000     0.876300000000     0.0445807  
H638     H      0.972710000000     0.750940000000     0.635410000000     0.0862106  
H639     H      0.516250000000     0.798860000000     0.635670000000     0.0481771  
H640     H      0.565320000000     0.781720000000     0.664420000000     0.0430826  
H641     H      0.979720000000     0.718860000000     0.607670000000     0.0869877  
H642     H      0.028490000000     0.702940000000     0.636850000000    -0.000562283
H643     H      0.549410000000     0.795480000000     0.607470000000     0.0463544  
H644     H      0.571310000000     0.749230000000     0.636450000000     0.0425916  
H645     H      0.636370000000     0.002590000000     0.715970000000     0.085186   
H646     H      0.633300000000     0.552510000000     0.755660000000     0.0743793  
H647     H      0.612140000000     0.535700000000     0.808450000000     0.0513885  
H648     H      0.668980000000     0.974730000000     0.722000000000     0.0837351  
H649     H      0.646150000000     0.958400000000     0.773590000000    -0.00177059 
H650     H      0.664980000000     0.555740000000     0.785530000000     0.0695553  
H651     H      0.645010000000     0.507470000000     0.812990000000     0.050078   
H652     H      0.878500000000     0.008250000000     0.813680000000     0.0756163  
H653     H      0.885690000000     0.560250000000     0.776220000000     0.0495429  
H654     H      0.924850000000     0.549390000000     0.733110000000     0.0475492  
H655     H      0.855260000000     0.975910000000     0.797370000000     0.0833687  
H656     H      0.896110000000     0.965380000000     0.756970000000     0.00957091 
H657     H      0.864670000000     0.559380000000     0.738120000000     0.0617734  
H658     H      0.900380000000     0.516790000000     0.718350000000     0.0551554  
H659     H      0.012880000000     0.869570000000     0.710620000000     0.0922507  
H660     H      0.562190000000     0.874090000000     0.754870000000     0.0635276  
H661     H      0.546290000000     0.904540000000     0.803290000000     0.0504272  
H662     H      0.978180000000     0.847180000000     0.723330000000     0.0864676  
H663     H      0.964240000000     0.885600000000     0.763400000000     0.00718365 
H664     H      0.558170000000     0.848480000000     0.789560000000     0.047658   
H665     H      0.510870000000     0.879570000000     0.808370000000     0.0474237  
H666     H      0.535090000000     0.637130000000     0.721530000000     0.102749   
H667     H      0.978630000000     0.634630000000     0.759020000000     0.05896    
H668     H      0.985830000000     0.599030000000     0.805540000000     0.0454709  
H669     H      0.568790000000     0.656160000000     0.740730000000     0.0899543  
H670     H      0.573600000000     0.614880000000     0.779970000000    -0.00552917 
H671     H      0.980970000000     0.657430000000     0.795760000000     0.0633553  
H672     H      0.021850000000     0.620520000000     0.817700000000     0.047636   
N1       N      0.423460000000     0.277100000000     0.015400000000    -0.210874   
N2       N      0.357510000000     0.264700000000     0.007020000000    -0.167014   
N3       N      0.106600000000     0.234110000000     0.016200000000    -0.209271   
N4       N      0.168760000000     0.254190000000     0.999860000000    -0.165571   
N5       N      0.254660000000     0.350830000000     0.496900000000    -0.210154   
N6       N      0.266160000000     0.414860000000     0.510430000000    -0.167265   
N7       N      0.259770000000     0.100460000000     0.504150000000    -0.207677   
N8       N      0.270660000000     0.166150000000     0.510010000000    -0.167232   
N9       N      0.258320000000     0.516250000000     0.351740000000    -0.208625   
N10      N      0.246110000000     0.502280000000     0.416020000000    -0.16859    
N11      N      0.268280000000     0.518260000000     0.164690000000    -0.205637   
N12      N      0.280020000000     0.006610000000     0.099690000000    -0.170306   
N13      N      0.511970000000     0.260590000000     0.352380000000    -0.208222   
N14      N      0.518040000000     0.251220000000     0.418470000000    -0.163102   
N15      N      0.530960000000     0.243120000000     0.167330000000    -0.210163   
N16      N      0.513050000000     0.258600000000     0.105120000000    -0.16785    
N17      N      0.110900000000     0.494760000000     0.277110000000    -0.209041   
N18      N      0.169230000000     0.016520000000     0.252260000000    -0.168036   
N19      N      0.423490000000     0.507500000000     0.262810000000    -0.206031   
N20      N      0.357180000000     0.018920000000     0.268930000000    -0.170012   
N21      N      0.009010000000     0.409480000000     0.267410000000    -0.203017   
N22      N      0.020120000000     0.345050000000     0.254140000000    -0.166277   
N23      N      0.527470000000     0.093850000000     0.274860000000    -0.207595   
N24      N      0.022810000000     0.159710000000     0.265070000000    -0.161966   
N25      N      0.423460000000     0.277100000000     0.515400000000    -0.210764   
N26      N      0.357510000000     0.264700000000     0.507020000000    -0.166969   
N27      N      0.106600000000     0.234110000000     0.516200000000    -0.209161   
N28      N      0.168760000000     0.254190000000     0.499860000000    -0.165807   
N29      N      0.254660000000     0.350830000000     0.996900000000    -0.210051   
N30      N      0.266160000000     0.414860000000     0.010430000000    -0.167392   
N31      N      0.259770000000     0.100460000000     0.004150000000    -0.207715   
N32      N      0.270660000000     0.166150000000     0.010010000000    -0.167308   
N33      N      0.258320000000     0.516250000000     0.851740000000    -0.208626   
N34      N      0.246110000000     0.502280000000     0.916020000000    -0.168502   
N35      N      0.268280000000     0.518260000000     0.664690000000    -0.205639   
N36      N      0.280020000000     0.006610000000     0.599690000000    -0.170293   
N37      N      0.511970000000     0.260590000000     0.852390000000    -0.208131   
N38      N      0.518040000000     0.251220000000     0.918470000000    -0.163089   
N39      N      0.530960000000     0.243120000000     0.667330000000    -0.210165   
N40      N      0.513050000000     0.258600000000     0.605120000000    -0.16785    
N41      N      0.110900000000     0.494760000000     0.777110000000    -0.20904    
N42      N      0.169230000000     0.016520000000     0.752260000000    -0.168036   
N43      N      0.423490000000     0.507500000000     0.762810000000    -0.20603    
N44      N      0.357180000000     0.018920000000     0.768930000000    -0.170012   
N45      N      0.009010000000     0.409480000000     0.767410000000    -0.202996   
N46      N      0.020120000000     0.345050000000     0.754140000000    -0.166285   
N47      N      0.527470000000     0.093850000000     0.774860000000    -0.207594   
N48      N      0.022810000000     0.159710000000     0.765070000000    -0.161966   
N49      N      0.423460000000     0.777100000000     0.015400000000    -0.210776   
N50      N      0.357510000000     0.764700000000     0.007020000000    -0.166991   
N51      N      0.106600000000     0.734110000000     0.016200000000    -0.209232   
N52      N      0.168760000000     0.754190000000     0.999860000000    -0.165535   
N53      N      0.254660000000     0.850830000000     0.496900000000    -0.210097   
N54      N      0.266160000000     0.914860000000     0.510430000000    -0.166543   
N55      N      0.259770000000     0.600460000000     0.504150000000    -0.207786   
N56      N      0.270660000000     0.666150000000     0.510010000000    -0.167228   
N57      N      0.258320000000     0.016250000000     0.351740000000    -0.212563   
N58      N      0.246110000000     0.002280000000     0.416020000000    -0.172388   
N59      N      0.268280000000     0.018260000000     0.164690000000    -0.209664   
N60      N      0.280020000000     0.506610000000     0.099690000000    -0.166555   
N61      N      0.511970000000     0.760590000000     0.352380000000    -0.208191   
N62      N      0.518040000000     0.751220000000     0.418470000000    -0.163056   
N63      N      0.530960000000     0.743120000000     0.167330000000    -0.210148   
N64      N      0.513050000000     0.758600000000     0.105120000000    -0.167774   
N65      N      0.110900000000     0.994760000000     0.277110000000    -0.204575   
N66      N      0.169230000000     0.516520000000     0.252260000000    -0.163529   
N67      N      0.423490000000     0.007500000000     0.262810000000    -0.209703   
N68      N      0.357180000000     0.518920000000     0.268930000000    -0.166023   
N69      N      0.009010000000     0.909480000000     0.267410000000    -0.202258   
N70      N      0.020120000000     0.845050000000     0.254140000000    -0.166239   
N71      N      0.527470000000     0.593850000000     0.274860000000    -0.207721   
N72      N      0.022810000000     0.659710000000     0.265070000000    -0.161948   
N73      N      0.423460000000     0.777100000000     0.515400000000    -0.210667   
N74      N      0.357510000000     0.764700000000     0.507020000000    -0.166947   
N75      N      0.106600000000     0.734110000000     0.516200000000    -0.209122   
N76      N      0.168760000000     0.754190000000     0.499860000000    -0.165772   
N77      N      0.254660000000     0.850830000000     0.996900000000    -0.209995   
N78      N      0.266160000000     0.914860000000     0.010430000000    -0.16667    
N79      N      0.259770000000     0.600460000000     0.004150000000    -0.207824   
N80      N      0.270660000000     0.666150000000     0.010010000000    -0.167303   
N81      N      0.258320000000     0.016250000000     0.851740000000    -0.212564   
N82      N      0.246110000000     0.002280000000     0.916020000000    -0.1723     
N83      N      0.268280000000     0.018260000000     0.664690000000    -0.209665   
N84      N      0.280020000000     0.506610000000     0.599690000000    -0.166542   
N85      N      0.511970000000     0.760590000000     0.852390000000    -0.208101   
N86      N      0.518040000000     0.751220000000     0.918470000000    -0.163043   
N87      N      0.530960000000     0.743120000000     0.667330000000    -0.21015    
N88      N      0.513050000000     0.758600000000     0.605120000000    -0.167774   
N89      N      0.110900000000     0.994760000000     0.777110000000    -0.204574   
N90      N      0.169230000000     0.516520000000     0.752260000000    -0.163529   
N91      N      0.423490000000     0.007500000000     0.762810000000    -0.209703   
N92      N      0.357180000000     0.518920000000     0.768930000000    -0.166023   
N93      N      0.009010000000     0.909480000000     0.767410000000    -0.202237   
N94      N      0.020120000000     0.845050000000     0.754140000000    -0.166246   
N95      N      0.527470000000     0.593850000000     0.774860000000    -0.20772    
N96      N      0.022810000000     0.659710000000     0.765070000000    -0.161948   
N97      N      0.923460000000     0.277100000000     0.015400000000    -0.210856   
N98      N      0.857510000000     0.264700000000     0.007020000000    -0.167022   
N99      N      0.606600000000     0.234110000000     0.016200000000    -0.209273   
N100     N      0.668760000000     0.254190000000     0.999860000000    -0.165574   
N101     N      0.754660000000     0.350830000000     0.496900000000    -0.210153   
N102     N      0.766160000000     0.414860000000     0.510430000000    -0.167262   
N103     N      0.759770000000     0.100460000000     0.504150000000    -0.207672   
N104     N      0.770660000000     0.166150000000     0.510010000000    -0.167246   
N105     N      0.758320000000     0.516250000000     0.351740000000    -0.208622   
N106     N      0.746110000000     0.502280000000     0.416020000000    -0.168528   
N107     N      0.768280000000     0.518260000000     0.164690000000    -0.205636   
N108     N      0.780020000000     0.006610000000     0.099690000000    -0.170302   
N109     N      0.011970000000     0.260590000000     0.352380000000    -0.208273   
N110     N      0.018040000000     0.251220000000     0.418470000000    -0.163252   
N111     N      0.030960000000     0.243120000000     0.167330000000    -0.210072   
N112     N      0.013050000000     0.258600000000     0.105120000000    -0.167993   
N113     N      0.610900000000     0.494760000000     0.277110000000    -0.209025   
N114     N      0.669220000000     0.016520000000     0.252260000000    -0.167953   
N115     N      0.923500000000     0.507500000000     0.262810000000    -0.206076   
N116     N      0.857180000000     0.018920000000     0.268930000000    -0.17001    
N117     N      0.509010000000     0.409480000000     0.267410000000    -0.20294    
N118     N      0.520110000000     0.345050000000     0.254140000000    -0.166165   
N119     N      0.027480000000     0.093850000000     0.274860000000    -0.207555   
N120     N      0.522810000000     0.159710000000     0.265070000000    -0.161871   
N121     N      0.923460000000     0.277100000000     0.515400000000    -0.210746   
N122     N      0.857510000000     0.264700000000     0.507020000000    -0.166977   
N123     N      0.606600000000     0.234110000000     0.516200000000    -0.209163   
N124     N      0.668760000000     0.254190000000     0.499860000000    -0.165811   
N125     N      0.754660000000     0.350830000000     0.996900000000    -0.210051   
N126     N      0.766160000000     0.414860000000     0.010430000000    -0.167389   
N127     N      0.759770000000     0.100460000000     0.004150000000    -0.20771    
N128     N      0.770660000000     0.166150000000     0.010010000000    -0.167321   
N129     N      0.758320000000     0.516250000000     0.851740000000    -0.208623   
N130     N      0.746110000000     0.502280000000     0.916020000000    -0.168441   
N131     N      0.768280000000     0.518260000000     0.664690000000    -0.205637   
N132     N      0.780020000000     0.006610000000     0.599690000000    -0.170289   
N133     N      0.011970000000     0.260590000000     0.852390000000    -0.208182   
N134     N      0.018040000000     0.251220000000     0.918470000000    -0.163239   
N135     N      0.030960000000     0.243120000000     0.667330000000    -0.210074   
N136     N      0.013050000000     0.258600000000     0.605120000000    -0.167993   
N137     N      0.610900000000     0.494760000000     0.777110000000    -0.209024   
N138     N      0.669220000000     0.016520000000     0.752260000000    -0.167953   
N139     N      0.923500000000     0.507500000000     0.762810000000    -0.206075   
N140     N      0.857180000000     0.018920000000     0.768930000000    -0.17001    
N141     N      0.509010000000     0.409480000000     0.767410000000    -0.202919   
N142     N      0.520110000000     0.345050000000     0.754140000000    -0.166172   
N143     N      0.027480000000     0.093850000000     0.774860000000    -0.207554   
N144     N      0.522810000000     0.159710000000     0.765070000000    -0.16187    
N145     N      0.923460000000     0.777100000000     0.015400000000    -0.210758   
N146     N      0.857510000000     0.764700000000     0.007020000000    -0.166999   
N147     N      0.606600000000     0.734110000000     0.016200000000    -0.209234   
N148     N      0.668760000000     0.754190000000     0.999860000000    -0.165539   
N149     N      0.754660000000     0.850830000000     0.496900000000    -0.210097   
N150     N      0.766160000000     0.914860000000     0.510430000000    -0.16654    
N151     N      0.759770000000     0.600460000000     0.504150000000    -0.207781   
N152     N      0.770660000000     0.666150000000     0.510010000000    -0.167242   
N153     N      0.758320000000     0.016250000000     0.351740000000    -0.21256    
N154     N      0.746110000000     0.002280000000     0.416020000000    -0.172326   
N155     N      0.768280000000     0.018260000000     0.164690000000    -0.209662   
N156     N      0.780020000000     0.506610000000     0.099690000000    -0.166551   
N157     N      0.011970000000     0.760590000000     0.352380000000    -0.208242   
N158     N      0.018040000000     0.751220000000     0.418470000000    -0.163206   
N159     N      0.030960000000     0.743120000000     0.167330000000    -0.210057   
N160     N      0.013050000000     0.758600000000     0.105120000000    -0.167917   
N161     N      0.610900000000     0.994760000000     0.277110000000    -0.204559   
N162     N      0.669220000000     0.516520000000     0.252260000000    -0.163442   
N163     N      0.923500000000     0.007500000000     0.262810000000    -0.209747   
N164     N      0.857180000000     0.518920000000     0.268930000000    -0.166021   
N165     N      0.509010000000     0.909480000000     0.267410000000    -0.202181   
N166     N      0.520110000000     0.845050000000     0.254140000000    -0.166127   
N167     N      0.027480000000     0.593850000000     0.274860000000    -0.207681   
N168     N      0.522810000000     0.659710000000     0.265070000000    -0.161853   
N169     N      0.923460000000     0.777100000000     0.515400000000    -0.210649   
N170     N      0.857510000000     0.764700000000     0.507020000000    -0.166955   
N171     N      0.606600000000     0.734110000000     0.516200000000    -0.209124   
N172     N      0.668760000000     0.754190000000     0.499860000000    -0.165775   
N173     N      0.754660000000     0.850830000000     0.996900000000    -0.209995   
N174     N      0.766160000000     0.914860000000     0.010430000000    -0.166667   
N175     N      0.759770000000     0.600460000000     0.004150000000    -0.207819   
N176     N      0.770660000000     0.666150000000     0.010010000000    -0.167317   
N177     N      0.758320000000     0.016250000000     0.851740000000    -0.21256    
N178     N      0.746110000000     0.002280000000     0.916020000000    -0.172239   
N179     N      0.768280000000     0.018260000000     0.664690000000    -0.209663   
N180     N      0.780020000000     0.506610000000     0.599690000000    -0.166538   
N181     N      0.011970000000     0.760590000000     0.852390000000    -0.208152   
N182     N      0.018040000000     0.751220000000     0.918470000000    -0.163192   
N183     N      0.030960000000     0.743120000000     0.667330000000    -0.210059   
N184     N      0.013050000000     0.758600000000     0.605120000000    -0.167917   
N185     N      0.610900000000     0.994760000000     0.777110000000    -0.204558   
N186     N      0.669220000000     0.516520000000     0.752260000000    -0.163442   
N187     N      0.923500000000     0.007500000000     0.762810000000    -0.209746   
N188     N      0.857180000000     0.518920000000     0.768930000000    -0.166021   
N189     N      0.509010000000     0.909480000000     0.767410000000    -0.20216    
N190     N      0.520110000000     0.845050000000     0.754140000000    -0.166134   
N191     N      0.027480000000     0.593850000000     0.774860000000    -0.20768    
N192     N      0.522810000000     0.659710000000     0.765070000000    -0.161852   
O1       O      0.028240000000     0.047080000000     0.246250000000    -0.511913   
O2       O      0.510400000000     0.458040000000     0.242020000000    -0.504121   
O3       O      0.474140000000     0.011220000000     0.240730000000    -0.544815   
O4       O      0.064370000000     0.493840000000     0.247220000000    -0.515435   
O5       O      0.061130000000     0.001620000000     0.300270000000    -0.564252   
O6       O      0.469270000000     0.500400000000     0.293090000000    -0.5182     
O7       O      0.015720000000     0.455850000000     0.295400000000    -0.549396   
O8       O      0.514720000000     0.046200000000     0.298240000000    -0.559581   
O9       O      0.052780000000     0.252270000000     0.216900000000    -0.55837    
O10      O      0.043720000000     0.255310000000     0.307640000000    -0.558855   
O11      O      0.049240000000     0.207830000000     0.263140000000    -0.546693   
O12      O      0.047270000000     0.298260000000     0.261350000000    -0.558944   
O13      O      0.494080000000     0.296620000000     0.251000000000    -0.548227   
O14      O      0.495000000000     0.206740000000     0.263340000000    -0.533139   
O15      O      0.489730000000     0.256620000000     0.302200000000    -0.523506   
O16      O      0.499220000000     0.245110000000     0.212300000000    -0.525729   
O17      O      0.309540000000     0.491860000000     0.262500000000    -0.554745   
O18      O      0.217970000000     0.490660000000     0.253780000000    -0.555619   
O19      O      0.266920000000     0.491740000000     0.212580000000    -0.56183    
O20      O      0.260650000000     0.490700000000     0.303410000000    -0.563628   
O21      O      0.259080000000     0.044030000000     0.304230000000    -0.518052   
O22      O      0.267020000000     0.045080000000     0.212840000000    -0.513717   
O23      O      0.217050000000     0.043970000000     0.255790000000    -0.535617   
O24      O      0.309090000000     0.045200000000     0.261650000000    -0.537734   
O25      O      0.297770000000     0.512540000000     0.047770000000    -0.541692   
O26      O      0.281320000000     0.003820000000     0.458170000000    -0.555292   
O27      O      0.287440000000     0.053450000000     0.998600000000    -0.554088   
O28      O      0.291500000000     0.463180000000     0.505590000000    -0.550818   
O29      O      0.237660000000     0.461670000000     0.012310000000    -0.551602   
O30      O      0.235640000000     0.052270000000     0.514410000000    -0.517133   
O31      O      0.228120000000     0.508400000000     0.467760000000    -0.54697    
O32      O      0.244920000000     0.005210000000     0.057510000000    -0.546073   
O33      O      0.065870000000     0.270660000000     0.514700000000    -0.564315   
O34      O      0.476460000000     0.291490000000     0.007630000000    -0.526437   
O35      O      0.019250000000     0.283160000000     0.056450000000    -0.554461   
O36      O      0.524760000000     0.278630000000     0.465520000000    -0.545138   
O37      O      0.006040000000     0.228620000000     0.467050000000    -0.542508   
O38      O      0.509810000000     0.230640000000     0.058100000000    -0.554016   
O39      O      0.463860000000     0.240130000000     0.515260000000    -0.560261   
O40      O      0.053480000000     0.218880000000     0.010440000000    -0.521736   
O41      O      0.218540000000     0.251380000000     0.474810000000    -0.541243   
O42      O      0.310320000000     0.262500000000     0.478110000000    -0.548305   
O43      O      0.270270000000     0.211950000000     0.479820000000    -0.548076   
O44      O      0.260100000000     0.301920000000     0.473220000000    -0.553531   
O45      O      0.259150000000     0.305420000000     0.026870000000    -0.526619   
O46      O      0.262940000000     0.215190000000     0.032930000000    -0.554318   
O47      O      0.307810000000     0.261740000000     0.031760000000    -0.553811   
O48      O      0.215960000000     0.259050000000     0.027900000000    -0.548067   
O49      O      0.028240000000     0.047080000000     0.746250000000    -0.511912   
O50      O      0.510400000000     0.458040000000     0.742020000000    -0.50412    
O51      O      0.474140000000     0.011220000000     0.740730000000    -0.544814   
O52      O      0.064370000000     0.493840000000     0.747220000000    -0.515434   
O53      O      0.061130000000     0.001620000000     0.800270000000    -0.564248   
O54      O      0.469270000000     0.500400000000     0.793090000000    -0.518198   
O55      O      0.015720000000     0.455850000000     0.795400000000    -0.54939    
O56      O      0.514720000000     0.046200000000     0.798240000000    -0.559577   
O57      O      0.052780000000     0.252270000000     0.716900000000    -0.55837    
O58      O      0.043720000000     0.255310000000     0.807640000000    -0.558819   
O59      O      0.049240000000     0.207830000000     0.763140000000    -0.546692   
O60      O      0.047270000000     0.298260000000     0.761350000000    -0.558944   
O61      O      0.494080000000     0.296620000000     0.751000000000    -0.548227   
O62      O      0.495000000000     0.206740000000     0.763340000000    -0.533134   
O63      O      0.489730000000     0.256620000000     0.802200000000    -0.52346    
O64      O      0.499220000000     0.245110000000     0.712300000000    -0.525729   
O65      O      0.309540000000     0.491860000000     0.762500000000    -0.554746   
O66      O      0.217970000000     0.490660000000     0.753780000000    -0.555619   
O67      O      0.266920000000     0.491740000000     0.712580000000    -0.561831   
O68      O      0.260650000000     0.490700000000     0.803410000000    -0.563628   
O69      O      0.259080000000     0.044030000000     0.804230000000    -0.518052   
O70      O      0.267020000000     0.045080000000     0.712840000000    -0.513718   
O71      O      0.217050000000     0.043970000000     0.755790000000    -0.535617   
O72      O      0.309090000000     0.045200000000     0.761650000000    -0.537734   
O73      O      0.297770000000     0.512540000000     0.547760000000    -0.541775   
O74      O      0.281320000000     0.003820000000     0.958180000000    -0.555299   
O75      O      0.287440000000     0.053450000000     0.498600000000    -0.554412   
O76      O      0.291500000000     0.463180000000     0.005590000000    -0.550807   
O77      O      0.237660000000     0.461670000000     0.512310000000    -0.551588   
O78      O      0.235640000000     0.052270000000     0.014410000000    -0.517087   
O79      O      0.228120000000     0.508400000000     0.967760000000    -0.546902   
O80      O      0.244920000000     0.005210000000     0.557510000000    -0.546059   
O81      O      0.065870000000     0.270660000000     0.014700000000    -0.564322   
O82      O      0.476460000000     0.291490000000     0.507630000000    -0.526398   
O83      O      0.019250000000     0.283160000000     0.556450000000    -0.554491   
O84      O      0.524760000000     0.278630000000     0.965520000000    -0.544984   
O85      O      0.006040000000     0.228620000000     0.967050000000    -0.542345   
O86      O      0.509810000000     0.230640000000     0.558100000000    -0.554032   
O87      O      0.463860000000     0.240130000000     0.015250000000    -0.560305   
O88      O      0.053480000000     0.218880000000     0.510440000000    -0.521702   
O89      O      0.218540000000     0.251380000000     0.974810000000    -0.541055   
O90      O      0.310320000000     0.262500000000     0.978110000000    -0.548153   
O91      O      0.270270000000     0.211950000000     0.979820000000    -0.547923   
O92      O      0.260100000000     0.301920000000     0.973220000000    -0.55357    
O93      O      0.259150000000     0.305420000000     0.526870000000    -0.526493   
O94      O      0.262940000000     0.215190000000     0.532930000000    -0.554379   
O95      O      0.307810000000     0.261740000000     0.531760000000    -0.553873   
O96      O      0.215960000000     0.259050000000     0.527900000000    -0.548163   
O97      O      0.028240000000     0.547080000000     0.246250000000    -0.514168   
O98      O      0.510400000000     0.958040000000     0.242020000000    -0.495485   
O99      O      0.474140000000     0.511220000000     0.240730000000    -0.546336   
O100     O      0.064370000000     0.993840000000     0.247220000000    -0.508617   
O101     O      0.061130000000     0.501620000000     0.300270000000    -0.556232   
O102     O      0.469270000000     0.000400000000     0.293090000000    -0.520009   
O103     O      0.015720000000     0.955850000000     0.295400000000    -0.542145   
O104     O      0.514720000000     0.546200000000     0.298240000000    -0.560983   
O105     O      0.052780000000     0.752280000000     0.216900000000    -0.558307   
O106     O      0.043720000000     0.755310000000     0.307640000000    -0.558839   
O107     O      0.049240000000     0.707830000000     0.263140000000    -0.546693   
O108     O      0.047270000000     0.798260000000     0.261350000000    -0.558878   
O109     O      0.494080000000     0.796620000000     0.251000000000    -0.548309   
O110     O      0.495000000000     0.706740000000     0.263340000000    -0.53297    
O111     O      0.489730000000     0.756620000000     0.302200000000    -0.523485   
O112     O      0.499220000000     0.745110000000     0.212300000000    -0.525659   
O113     O      0.309540000000     0.991860000000     0.262500000000    -0.546397   
O114     O      0.217970000000     0.990660000000     0.253780000000    -0.547398   
O115     O      0.266920000000     0.991740000000     0.212580000000    -0.553473   
O116     O      0.260650000000     0.990700000000     0.303410000000    -0.555214   
O117     O      0.259080000000     0.544020000000     0.304230000000    -0.521704   
O118     O      0.267020000000     0.545080000000     0.212840000000    -0.517108   
O119     O      0.217050000000     0.543970000000     0.255790000000    -0.539029   
O120     O      0.309090000000     0.545200000000     0.261650000000    -0.541185   
O121     O      0.297770000000     0.012540000000     0.047770000000    -0.541945   
O122     O      0.281320000000     0.503820000000     0.458170000000    -0.553902   
O123     O      0.287440000000     0.553450000000     0.998600000000    -0.555879   
O124     O      0.291500000000     0.963180000000     0.505590000000    -0.542699   
O125     O      0.237660000000     0.961670000000     0.012310000000    -0.543541   
O126     O      0.235640000000     0.552270000000     0.514410000000    -0.518911   
O127     O      0.228120000000     0.008400000000     0.467760000000    -0.54725    
O128     O      0.244920000000     0.505210000000     0.057510000000    -0.544713   
O129     O      0.065870000000     0.770660000000     0.514700000000    -0.564223   
O130     O      0.476460000000     0.791490000000     0.007630000000    -0.526157   
O131     O      0.019250000000     0.783160000000     0.056450000000    -0.554259   
O132     O      0.524760000000     0.778630000000     0.465520000000    -0.544981   
O133     O      0.006040000000     0.728620000000     0.467050000000    -0.542426   
O134     O      0.509810000000     0.730640000000     0.058100000000    -0.553931   
O135     O      0.463860000000     0.740130000000     0.515260000000    -0.560204   
O136     O      0.053480000000     0.718880000000     0.010440000000    -0.521613   
O137     O      0.218540000000     0.751380000000     0.474810000000    -0.54121    
O138     O      0.310320000000     0.762500000000     0.478110000000    -0.548281   
O139     O      0.270270000000     0.711950000000     0.479820000000    -0.548089   
O140     O      0.260100000000     0.801920000000     0.473220000000    -0.553429   
O141     O      0.259150000000     0.805420000000     0.026870000000    -0.526532   
O142     O      0.262940000000     0.715190000000     0.032930000000    -0.55433    
O143     O      0.307810000000     0.761740000000     0.031760000000    -0.553766   
O144     O      0.215960000000     0.759050000000     0.027900000000    -0.54805    
O145     O      0.028240000000     0.547080000000     0.746250000000    -0.514167   
O146     O      0.510400000000     0.958040000000     0.742020000000    -0.495484   
O147     O      0.474140000000     0.511220000000     0.740730000000    -0.546335   
O148     O      0.064370000000     0.993840000000     0.747220000000    -0.508616   
O149     O      0.061130000000     0.501620000000     0.800270000000    -0.556228   
O150     O      0.469270000000     0.000400000000     0.793090000000    -0.520006   
O151     O      0.015720000000     0.955850000000     0.795400000000    -0.54214    
O152     O      0.514720000000     0.546200000000     0.798240000000    -0.560979   
O153     O      0.052780000000     0.752280000000     0.716900000000    -0.558306   
O154     O      0.043720000000     0.755310000000     0.807640000000    -0.558803   
O155     O      0.049240000000     0.707830000000     0.763140000000    -0.546691   
O156     O      0.047270000000     0.798260000000     0.761350000000    -0.558878   
O157     O      0.494080000000     0.796620000000     0.751000000000    -0.548309   
O158     O      0.495000000000     0.706740000000     0.763340000000    -0.532965   
O159     O      0.489730000000     0.756620000000     0.802200000000    -0.523438   
O160     O      0.499220000000     0.745110000000     0.712300000000    -0.525658   
O161     O      0.309540000000     0.991860000000     0.762500000000    -0.546397   
O162     O      0.217970000000     0.990660000000     0.753780000000    -0.547398   
O163     O      0.266920000000     0.991740000000     0.712580000000    -0.553474   
O164     O      0.260650000000     0.990700000000     0.803410000000    -0.555214   
O165     O      0.259080000000     0.544020000000     0.804230000000    -0.521703   
O166     O      0.267020000000     0.545080000000     0.712840000000    -0.517109   
O167     O      0.217050000000     0.543970000000     0.755790000000    -0.53903    
O168     O      0.309090000000     0.545200000000     0.761650000000    -0.541185   
O169     O      0.297770000000     0.012540000000     0.547760000000    -0.542027   
O170     O      0.281320000000     0.503820000000     0.958180000000    -0.553911   
O171     O      0.287440000000     0.553450000000     0.498600000000    -0.556202   
O172     O      0.291500000000     0.963180000000     0.005590000000    -0.542688   
O173     O      0.237660000000     0.961670000000     0.512310000000    -0.543527   
O174     O      0.235640000000     0.552270000000     0.014410000000    -0.518865   
O175     O      0.228120000000     0.008400000000     0.967760000000    -0.547181   
O176     O      0.244920000000     0.505210000000     0.557510000000    -0.5447     
O177     O      0.065870000000     0.770660000000     0.014700000000    -0.564231   
O178     O      0.476460000000     0.791490000000     0.507630000000    -0.526119   
O179     O      0.019250000000     0.783160000000     0.556450000000    -0.554289   
O180     O      0.524760000000     0.778630000000     0.965520000000    -0.544828   
O181     O      0.006040000000     0.728620000000     0.967050000000    -0.542264   
O182     O      0.509810000000     0.730640000000     0.558100000000    -0.553947   
O183     O      0.463860000000     0.740130000000     0.015250000000    -0.560247   
O184     O      0.053480000000     0.718880000000     0.510440000000    -0.52158    
O185     O      0.218540000000     0.751380000000     0.974810000000    -0.541022   
O186     O      0.310320000000     0.762500000000     0.978110000000    -0.548129   
O187     O      0.270270000000     0.711950000000     0.979820000000    -0.547936   
O188     O      0.260100000000     0.801920000000     0.973220000000    -0.553468   
O189     O      0.259150000000     0.805420000000     0.526870000000    -0.526406   
O190     O      0.262940000000     0.715190000000     0.532930000000    -0.554391   
O191     O      0.307810000000     0.761740000000     0.531760000000    -0.553827   
O192     O      0.215960000000     0.759050000000     0.527900000000    -0.548145   
O193     O      0.528240000000     0.047080000000     0.246250000000    -0.511947   
O194     O      0.010400000000     0.458040000000     0.242020000000    -0.504154   
O195     O      0.974140000000     0.011220000000     0.240730000000    -0.544664   
O196     O      0.564370000000     0.493840000000     0.247220000000    -0.515508   
O197     O      0.561140000000     0.001620000000     0.300270000000    -0.564183   
O198     O      0.969270000000     0.500400000000     0.293090000000    -0.51811    
O199     O      0.515720000000     0.455850000000     0.295400000000    -0.549352   
O200     O      0.014720000000     0.046200000000     0.298240000000    -0.559678   
O201     O      0.552780000000     0.252270000000     0.216900000000    -0.558456   
O202     O      0.543720000000     0.255310000000     0.307640000000    -0.558932   
O203     O      0.549240000000     0.207830000000     0.263140000000    -0.546765   
O204     O      0.547270000000     0.298260000000     0.261350000000    -0.558914   
O205     O      0.994080000000     0.296620000000     0.251000000000    -0.54793    
O206     O      0.995000000000     0.206740000000     0.263340000000    -0.532947   
O207     O      0.989730000000     0.256620000000     0.302200000000    -0.523305   
O208     O      0.999220000000     0.245110000000     0.212300000000    -0.525512   
O209     O      0.809540000000     0.491860000000     0.262500000000    -0.554713   
O210     O      0.717970000000     0.490660000000     0.253780000000    -0.555651   
O211     O      0.766930000000     0.491740000000     0.212580000000    -0.561824   
O212     O      0.760660000000     0.490700000000     0.303410000000    -0.563637   
O213     O      0.759080000000     0.044030000000     0.304230000000    -0.51801    
O214     O      0.767020000000     0.045080000000     0.212840000000    -0.513682   
O215     O      0.717040000000     0.043970000000     0.255790000000    -0.53546    
O216     O      0.809090000000     0.045200000000     0.261650000000    -0.537671   
O217     O      0.797770000000     0.512540000000     0.047770000000    -0.541679   
O218     O      0.781320000000     0.003820000000     0.458170000000    -0.555218   
O219     O      0.787440000000     0.053450000000     0.998600000000    -0.554083   
O220     O      0.791500000000     0.463180000000     0.505590000000    -0.55081    
O221     O      0.737660000000     0.461670000000     0.012310000000    -0.551584   
O222     O      0.735640000000     0.052270000000     0.514410000000    -0.517116   
O223     O      0.728110000000     0.508400000000     0.467760000000    -0.546746   
O224     O      0.744920000000     0.005210000000     0.057510000000    -0.54605    
O225     O      0.565870000000     0.270660000000     0.514700000000    -0.564345   
O226     O      0.976460000000     0.291490000000     0.007630000000    -0.526243   
O227     O      0.519250000000     0.283160000000     0.056450000000    -0.55446    
O228     O      0.024750000000     0.278630000000     0.465520000000    -0.545221   
O229     O      0.506040000000     0.228620000000     0.467050000000    -0.542441   
O230     O      0.009810000000     0.230640000000     0.058100000000    -0.554069   
O231     O      0.963860000000     0.240130000000     0.515260000000    -0.560087   
O232     O      0.553480000000     0.218880000000     0.010440000000    -0.521771   
O233     O      0.718540000000     0.251380000000     0.474810000000    -0.5413     
O234     O      0.810310000000     0.262500000000     0.478110000000    -0.548438   
O235     O      0.770270000000     0.211950000000     0.479820000000    -0.548116   
O236     O      0.760100000000     0.301920000000     0.473220000000    -0.553567   
O237     O      0.759160000000     0.305420000000     0.026870000000    -0.526634   
O238     O      0.762940000000     0.215190000000     0.032930000000    -0.554319   
O239     O      0.807810000000     0.261740000000     0.031760000000    -0.55377    
O240     O      0.715960000000     0.259050000000     0.027900000000    -0.548084   
O241     O      0.528240000000     0.047080000000     0.746250000000    -0.511947   
O242     O      0.010400000000     0.458040000000     0.742020000000    -0.504152   
O243     O      0.974140000000     0.011220000000     0.740730000000    -0.544663   
O244     O      0.564370000000     0.493840000000     0.747220000000    -0.515507   
O245     O      0.561140000000     0.001620000000     0.800270000000    -0.564179   
O246     O      0.969270000000     0.500400000000     0.793090000000    -0.518107   
O247     O      0.515720000000     0.455850000000     0.795400000000    -0.549346   
O248     O      0.014720000000     0.046200000000     0.798240000000    -0.559675   
O249     O      0.552780000000     0.252270000000     0.716900000000    -0.558455   
O250     O      0.543720000000     0.255310000000     0.807640000000    -0.558897   
O251     O      0.549240000000     0.207830000000     0.763140000000    -0.546764   
O252     O      0.547270000000     0.298260000000     0.761350000000    -0.558914   
O253     O      0.994080000000     0.296620000000     0.751000000000    -0.54793    
O254     O      0.995000000000     0.206740000000     0.763340000000    -0.532942   
O255     O      0.989730000000     0.256620000000     0.802200000000    -0.523259   
O256     O      0.999220000000     0.245110000000     0.712300000000    -0.525511   
O257     O      0.809540000000     0.491860000000     0.762500000000    -0.554714   
O258     O      0.717970000000     0.490660000000     0.753780000000    -0.555652   
O259     O      0.766930000000     0.491740000000     0.712580000000    -0.561825   
O260     O      0.760660000000     0.490700000000     0.803410000000    -0.563637   
O261     O      0.759080000000     0.044030000000     0.804230000000    -0.51801    
O262     O      0.767020000000     0.045080000000     0.712840000000    -0.513683   
O263     O      0.717040000000     0.043970000000     0.755790000000    -0.53546    
O264     O      0.809090000000     0.045200000000     0.761650000000    -0.537671   
O265     O      0.797770000000     0.512540000000     0.547760000000    -0.541762   
O266     O      0.781320000000     0.003820000000     0.958180000000    -0.555225   
O267     O      0.787440000000     0.053450000000     0.498600000000    -0.554406   
O268     O      0.791500000000     0.463180000000     0.005590000000    -0.550799   
O269     O      0.737660000000     0.461670000000     0.512310000000    -0.55157    
O270     O      0.735640000000     0.052270000000     0.014410000000    -0.51707    
O271     O      0.728110000000     0.508400000000     0.967760000000    -0.546678   
O272     O      0.744920000000     0.005210000000     0.557510000000    -0.546036   
O273     O      0.565870000000     0.270660000000     0.014700000000    -0.564352   
O274     O      0.976460000000     0.291490000000     0.507630000000    -0.526205   
O275     O      0.519250000000     0.283160000000     0.556450000000    -0.55449    
O276     O      0.024750000000     0.278630000000     0.965520000000    -0.545067   
O277     O      0.506040000000     0.228620000000     0.967050000000    -0.542278   
O278     O      0.009810000000     0.230640000000     0.558100000000    -0.554085   
O279     O      0.963860000000     0.240130000000     0.015250000000    -0.56013    
O280     O      0.553480000000     0.218880000000     0.510440000000    -0.521738   
O281     O      0.718540000000     0.251380000000     0.974810000000    -0.541112   
O282     O      0.810310000000     0.262500000000     0.978110000000    -0.548285   
O283     O      0.770270000000     0.211950000000     0.979820000000    -0.547963   
O284     O      0.760100000000     0.301920000000     0.973220000000    -0.553606   
O285     O      0.759160000000     0.305420000000     0.526870000000    -0.526507   
O286     O      0.762940000000     0.215190000000     0.532930000000    -0.55438    
O287     O      0.807810000000     0.261740000000     0.531760000000    -0.553831   
O288     O      0.715960000000     0.259050000000     0.527900000000    -0.548179   
O289     O      0.528240000000     0.547080000000     0.246250000000    -0.514203   
O290     O      0.010400000000     0.958040000000     0.242020000000    -0.495518   
O291     O      0.974140000000     0.511220000000     0.240730000000    -0.546185   
O292     O      0.564370000000     0.993840000000     0.247220000000    -0.508691   
O293     O      0.561140000000     0.501620000000     0.300270000000    -0.55616    
O294     O      0.969270000000     0.000400000000     0.293090000000    -0.519919   
O295     O      0.515720000000     0.955850000000     0.295400000000    -0.542102   
O296     O      0.014720000000     0.546200000000     0.298240000000    -0.561081   
O297     O      0.552780000000     0.752280000000     0.216900000000    -0.558392   
O298     O      0.543720000000     0.755310000000     0.307640000000    -0.558916   
O299     O      0.549240000000     0.707830000000     0.263140000000    -0.546765   
O300     O      0.547270000000     0.798260000000     0.261350000000    -0.558848   
O301     O      0.994080000000     0.796620000000     0.251000000000    -0.548012   
O302     O      0.995000000000     0.706740000000     0.263340000000    -0.532777   
O303     O      0.989730000000     0.756620000000     0.302200000000    -0.523284   
O304     O      0.999220000000     0.745110000000     0.212300000000    -0.525442   
O305     O      0.809540000000     0.991860000000     0.262500000000    -0.546366   
O306     O      0.717970000000     0.990660000000     0.253780000000    -0.54743    
O307     O      0.766930000000     0.991740000000     0.212580000000    -0.553467   
O308     O      0.760660000000     0.990700000000     0.303410000000    -0.555224   
O309     O      0.759080000000     0.544020000000     0.304230000000    -0.521661   
O310     O      0.767020000000     0.545080000000     0.212840000000    -0.517073   
O311     O      0.717040000000     0.543970000000     0.255790000000    -0.538873   
O312     O      0.809090000000     0.545200000000     0.261650000000    -0.541121   
O313     O      0.797770000000     0.012540000000     0.047770000000    -0.541932   
O314     O      0.781320000000     0.503820000000     0.458170000000    -0.553829   
O315     O      0.787440000000     0.553450000000     0.998600000000    -0.555873   
O316     O      0.791500000000     0.963180000000     0.505590000000    -0.542691   
O317     O      0.737660000000     0.961670000000     0.012310000000    -0.543524   
O318     O      0.735640000000     0.552270000000     0.514410000000    -0.518894   
O319     O      0.728110000000     0.008400000000     0.467760000000    -0.547028   
O320     O      0.744920000000     0.505210000000     0.057510000000    -0.54469    
O321     O      0.565870000000     0.770660000000     0.514700000000    -0.564253   
O322     O      0.976460000000     0.791490000000     0.007630000000    -0.525964   
O323     O      0.519250000000     0.783160000000     0.056450000000    -0.554257   
O324     O      0.024750000000     0.778630000000     0.465520000000    -0.545064   
O325     O      0.506040000000     0.728620000000     0.467050000000    -0.542359   
O326     O      0.009810000000     0.730640000000     0.058100000000    -0.553985   
O327     O      0.963860000000     0.740130000000     0.515260000000    -0.560029   
O328     O      0.553480000000     0.718880000000     0.010440000000    -0.521649   
O329     O      0.718540000000     0.751380000000     0.474810000000    -0.541266   
O330     O      0.810310000000     0.762500000000     0.478110000000    -0.548413   
O331     O      0.770270000000     0.711950000000     0.479820000000    -0.548129   
O332     O      0.760100000000     0.801920000000     0.473220000000    -0.553465   
O333     O      0.759160000000     0.805420000000     0.026870000000    -0.526546   
O334     O      0.762940000000     0.715190000000     0.032930000000    -0.554331   
O335     O      0.807810000000     0.761740000000     0.031760000000    -0.553724   
O336     O      0.715960000000     0.759050000000     0.027900000000    -0.548066   
O337     O      0.528240000000     0.547080000000     0.746250000000    -0.514201   
O338     O      0.010400000000     0.958040000000     0.742020000000    -0.495517   
O339     O      0.974140000000     0.511220000000     0.740730000000    -0.546183   
O340     O      0.564370000000     0.993840000000     0.747220000000    -0.50869    
O341     O      0.561140000000     0.501620000000     0.800270000000    -0.556156   
O342     O      0.969270000000     0.000400000000     0.793090000000    -0.519916   
O343     O      0.515720000000     0.955850000000     0.795400000000    -0.542096   
O344     O      0.014720000000     0.546200000000     0.798240000000    -0.561077   
O345     O      0.552780000000     0.752280000000     0.716900000000    -0.558391   
O346     O      0.543720000000     0.755310000000     0.807640000000    -0.55888    
O347     O      0.549240000000     0.707830000000     0.763140000000    -0.546763   
O348     O      0.547270000000     0.798260000000     0.761350000000    -0.558847   
O349     O      0.994080000000     0.796620000000     0.751000000000    -0.548012   
O350     O      0.995000000000     0.706740000000     0.763340000000    -0.532773   
O351     O      0.989730000000     0.756620000000     0.802200000000    -0.523238   
O352     O      0.999220000000     0.745110000000     0.712300000000    -0.525441   
O353     O      0.809540000000     0.991860000000     0.762500000000    -0.546366   
O354     O      0.717970000000     0.990660000000     0.753780000000    -0.54743    
O355     O      0.766930000000     0.991740000000     0.712580000000    -0.553468   
O356     O      0.760660000000     0.990700000000     0.803410000000    -0.555225   
O357     O      0.759080000000     0.544020000000     0.804230000000    -0.521661   
O358     O      0.767020000000     0.545080000000     0.712840000000    -0.517073   
O359     O      0.717040000000     0.543970000000     0.755790000000    -0.538873   
O360     O      0.809090000000     0.545200000000     0.761650000000    -0.541121   
O361     O      0.797770000000     0.012540000000     0.547760000000    -0.542014   
O362     O      0.781320000000     0.503820000000     0.958180000000    -0.553837   
O363     O      0.787440000000     0.553450000000     0.498600000000    -0.556196   
O364     O      0.791500000000     0.963180000000     0.005590000000    -0.54268    
O365     O      0.737660000000     0.961670000000     0.512310000000    -0.54351    
O366     O      0.735640000000     0.552270000000     0.014410000000    -0.518848   
O367     O      0.728110000000     0.008400000000     0.967760000000    -0.546959   
O368     O      0.744920000000     0.505210000000     0.557510000000    -0.544677   
O369     O      0.565870000000     0.770660000000     0.014700000000    -0.564261   
O370     O      0.976460000000     0.791490000000     0.507630000000    -0.525926   
O371     O      0.519250000000     0.783160000000     0.556450000000    -0.554288   
O372     O      0.024750000000     0.778630000000     0.965520000000    -0.544911   
O373     O      0.506040000000     0.728620000000     0.967050000000    -0.542197   
O374     O      0.009810000000     0.730640000000     0.558100000000    -0.554      
O375     O      0.963860000000     0.740130000000     0.015250000000    -0.560073   
O376     O      0.553480000000     0.718880000000     0.510440000000    -0.521615   
O377     O      0.718540000000     0.751380000000     0.974810000000    -0.541079   
O378     O      0.810310000000     0.762500000000     0.978110000000    -0.548261   
O379     O      0.770270000000     0.711950000000     0.979820000000    -0.547976   
O380     O      0.760100000000     0.801920000000     0.973220000000    -0.553503   
O381     O      0.759160000000     0.805420000000     0.526870000000    -0.52642    
O382     O      0.762940000000     0.715190000000     0.532930000000    -0.554392   
O383     O      0.807810000000     0.761740000000     0.531760000000    -0.553786   
O384     O      0.715960000000     0.759050000000     0.527900000000    -0.548162   
V1       V      0.519460000000     0.002650000000     0.241680000000     1.39776    
V2       V      0.515000000000     0.500960000000     0.299100000000     1.42061    
V3       V      0.050470000000     0.253350000000     0.262490000000     1.41028    
V4       V      0.492270000000     0.251370000000     0.256960000000     1.42796    
V5       V      0.263810000000     0.489150000000     0.257980000000     1.42581    
V6       V      0.263040000000     0.046750000000     0.258580000000     1.3942     
V7       V      0.291750000000     0.008410000000     0.002270000000     1.38442    
V8       V      0.234360000000     0.006910000000     0.513280000000     1.40321    
V9       V      0.021960000000     0.283170000000     0.010890000000     1.41535    
V10      V      0.507880000000     0.227380000000     0.012670000000     1.41544    
V11      V      0.264780000000     0.256750000000     0.474280000000     1.38496    
V12      V      0.261530000000     0.260470000000     0.032010000000     1.4284     
V13      V      0.519460000000     0.002650000000     0.741680000000     1.39776    
V14      V      0.515000000000     0.500960000000     0.799100000000     1.42062    
V15      V      0.050470000000     0.253350000000     0.762490000000     1.41027    
V16      V      0.492270000000     0.251370000000     0.756960000000     1.42795    
V17      V      0.263810000000     0.489150000000     0.757980000000     1.42581    
V18      V      0.263040000000     0.046750000000     0.758580000000     1.3942     
V19      V      0.291750000000     0.008410000000     0.502270000000     1.38483    
V20      V      0.234360000000     0.006910000000     0.013280000000     1.40306    
V21      V      0.021960000000     0.283170000000     0.510890000000     1.41556    
V22      V      0.507880000000     0.227380000000     0.512670000000     1.41561    
V23      V      0.264780000000     0.256750000000     0.974280000000     1.38511    
V24      V      0.261530000000     0.260470000000     0.532010000000     1.42862    
V25      V      0.519460000000     0.502650000000     0.241680000000     1.41793    
V26      V      0.515000000000     0.000960000000     0.299100000000     1.41283    
V27      V      0.050470000000     0.753350000000     0.262490000000     1.41026    
V28      V      0.492270000000     0.751380000000     0.256960000000     1.42791    
V29      V      0.263810000000     0.989150000000     0.257980000000     1.43249    
V30      V      0.263040000000     0.546750000000     0.258580000000     1.40703    
V31      V      0.291750000000     0.508410000000     0.002270000000     1.3948     
V32      V      0.234360000000     0.506910000000     0.513280000000     1.41372    
V33      V      0.021960000000     0.783170000000     0.010890000000     1.41613    
V34      V      0.507880000000     0.727380000000     0.012670000000     1.41544    
V35      V      0.264780000000     0.756750000000     0.474280000000     1.38494    
V36      V      0.261530000000     0.760470000000     0.032010000000     1.42842    
V37      V      0.519460000000     0.502650000000     0.741680000000     1.41793    
V38      V      0.515000000000     0.000960000000     0.799100000000     1.41284    
V39      V      0.050470000000     0.753350000000     0.762490000000     1.41024    
V40      V      0.492270000000     0.751380000000     0.756960000000     1.4279     
V41      V      0.263810000000     0.989150000000     0.757980000000     1.43249    
V42      V      0.263040000000     0.546750000000     0.758580000000     1.40703    
V43      V      0.291750000000     0.508410000000     0.502270000000     1.39521    
V44      V      0.234360000000     0.506910000000     0.013280000000     1.41358    
V45      V      0.021960000000     0.783170000000     0.510890000000     1.41633    
V46      V      0.507880000000     0.727380000000     0.512670000000     1.41561    
V47      V      0.264780000000     0.756750000000     0.974280000000     1.38508    
V48      V      0.261530000000     0.760470000000     0.532010000000     1.42864    
V49      V      0.019460000000     0.002650000000     0.241680000000     1.39744    
V50      V      0.015000000000     0.500960000000     0.299100000000     1.42069    
V51      V      0.550470000000     0.253350000000     0.262490000000     1.41052    
V52      V      0.992270000000     0.251370000000     0.256960000000     1.42805    
V53      V      0.763810000000     0.489150000000     0.257980000000     1.42586    
V54      V      0.763040000000     0.046750000000     0.258580000000     1.39389    
V55      V      0.791750000000     0.008410000000     0.002270000000     1.38442    
V56      V      0.734360000000     0.006910000000     0.513280000000     1.4031     
V57      V      0.521960000000     0.283170000000     0.010890000000     1.41554    
V58      V      0.007880000000     0.227380000000     0.012670000000     1.41519    
V59      V      0.764780000000     0.256750000000     0.474280000000     1.38526    
V60      V      0.761530000000     0.260470000000     0.032010000000     1.42836    
V61      V      0.019460000000     0.002650000000     0.741680000000     1.39744    
V62      V      0.015000000000     0.500960000000     0.799100000000     1.4207     
V63      V      0.550470000000     0.253350000000     0.762490000000     1.41051    
V64      V      0.992270000000     0.251370000000     0.756960000000     1.42804    
V65      V      0.763810000000     0.489150000000     0.757980000000     1.42586    
V66      V      0.763040000000     0.046750000000     0.758580000000     1.39389    
V67      V      0.791750000000     0.008410000000     0.502270000000     1.38483    
V68      V      0.734360000000     0.006910000000     0.013280000000     1.40295    
V69      V      0.521960000000     0.283170000000     0.510890000000     1.41574    
V70      V      0.007880000000     0.227380000000     0.512670000000     1.41536    
V71      V      0.764780000000     0.256750000000     0.974280000000     1.3854     
V72      V      0.761530000000     0.260470000000     0.532010000000     1.42858    
V73      V      0.019460000000     0.502650000000     0.241680000000     1.41762    
V74      V      0.015000000000     0.000960000000     0.299100000000     1.41292    
V75      V      0.550470000000     0.753350000000     0.262490000000     1.4105     
V76      V      0.992270000000     0.751380000000     0.256960000000     1.428      
V77      V      0.763810000000     0.989150000000     0.257980000000     1.43254    
V78      V      0.763040000000     0.546750000000     0.258580000000     1.40671    
V79      V      0.791750000000     0.508410000000     0.002270000000     1.39479    
V80      V      0.734360000000     0.506910000000     0.513280000000     1.41361    
V81      V      0.521960000000     0.783170000000     0.010890000000     1.41631    
V82      V      0.007880000000     0.727380000000     0.012670000000     1.4152     
V83      V      0.764780000000     0.756750000000     0.474280000000     1.38524    
V84      V      0.761530000000     0.760470000000     0.032010000000     1.42838    
V85      V      0.019460000000     0.502650000000     0.741680000000     1.41762    
V86      V      0.015000000000     0.000960000000     0.799100000000     1.41293    
V87      V      0.550470000000     0.753350000000     0.762490000000     1.41049    
V88      V      0.992270000000     0.751380000000     0.756960000000     1.428      
V89      V      0.763810000000     0.989150000000     0.757980000000     1.43254    
V90      V      0.763040000000     0.546750000000     0.758580000000     1.40671    
V91      V      0.791750000000     0.508410000000     0.502270000000     1.3952     
V92      V      0.734360000000     0.506910000000     0.013280000000     1.41346    
V93      V      0.521960000000     0.783170000000     0.510890000000     1.41652    
V94      V      0.007880000000     0.727380000000     0.512670000000     1.41536    
V95      V      0.764780000000     0.756750000000     0.974280000000     1.38538    
V96      V      0.761530000000     0.760470000000     0.532010000000     1.4286     


