data_structure

_audit_creation_method RASPA-1.0
_audit_creation_date 2023-6-5
_audit_author_name 'Poobodin Mano'

_cell_length_a    34.3977
_cell_length_b    34.1616
_cell_length_c    40.3664
_cell_angle_alpha 89.9816
_cell_angle_beta  90.0185
_cell_angle_gamma 119.98
_cell_volume      41087.1

_symmetry_cell_setting          triclinic
_symmetry_space_group_name_Hall 'P 1'
_symmetry_space_group_name_H-M  'P 1'
_symmetry_Int_Tables_number     1

_symmetry_equiv_pos_as_xyz 'x,y,z'

loop_
_atom_site_label
_atom_site_type_symbol
_atom_site_fract_x
_atom_site_fract_y
_atom_site_fract_z
_atom_site_charge
Br1      Br     0.885710000000     0.072290000000     0.360220000000    -0.18795    
Br2      Br     0.008390000000     0.322010000000     0.315360000000    -0.237928   
Br3      Br     0.157840000000     0.706630000000     0.135060000000    -0.232132   
Br4      Br     0.542630000000     0.702620000000     0.395980000000    -0.212962   
Br5      Br     0.310300000000     0.972800000000     0.181560000000    -0.211936   
Br6      Br     0.329000000000     0.316060000000     0.083510000000    -0.246635   
Br7      Br     0.591010000000     0.740790000000     0.304020000000    -0.218668   
Br8      Br     0.607490000000     0.876260000000     0.054670000000    -0.235279   
Br9      Br     0.815030000000     0.812010000000     0.183280000000    -0.23839    
Br10     Br     0.498070000000     0.906100000000     0.150940000000    -0.235764   
Br11     Br     0.927660000000     0.545610000000     0.403670000000    -0.235251   
Br12     Br     0.072060000000     0.460960000000     0.075170000000    -0.22674    
Br13     Br     0.902720000000     0.490550000000     0.061860000000    -0.303383   
Br14     Br     0.271900000000     0.043010000000     0.451910000000    -0.245487   
Br15     Br     0.258480000000     0.189260000000     0.259300000000    -0.236298   
Br16     Br     0.319230000000     0.009560000000     0.317020000000    -0.22214    
Br17     Br     0.156850000000     0.466210000000     0.384290000000    -0.229771   
Br18     Br     0.364400000000     0.315870000000     0.341130000000    -0.226902   
Br19     Br     0.530690000000     0.404220000000     0.342470000000    -0.237528   
Br20     Br     0.637040000000     0.604700000000     0.120490000000    -0.255399   
Br21     Br     0.908320000000     0.129870000000     0.400840000000    -0.191797   
Br22     Br     0.876000000000     0.088820000000     0.151050000000    -0.243852   
Br23     Br     0.251810000000     0.392240000000     0.245090000000    -0.380653   
Br24     Br     0.176540000000     0.235690000000     0.986150000000    -0.241302   
Br25     Br     0.978720000000     0.318720000000     0.099730000000    -0.23074    
Br26     Br     0.360240000000     0.460530000000     0.276050000000    -0.222869   
Br27     Br     0.633450000000     0.104410000000     0.386290000000    -0.250584   
Br28     Br     0.385760000000     0.982130000000     0.111810000000    -0.222979   
Br29     Br     0.721940000000     0.020010000000     0.048880000000    -0.231031   
Br30     Br     0.281280000000     0.869340000000     0.316960000000    -0.222027   
Br31     Br     0.077620000000     0.862830000000     0.991810000000    -0.243293   
Br32     Br     0.286280000000     0.850020000000     0.472130000000    -0.234083   
Br33     Br     0.770890000000     0.731510000000     0.455350000000    -0.259302   
Br34     Br     0.952210000000     0.783650000000     0.254370000000    -0.23542    
Br35     Br     0.743940000000     0.552860000000     0.276200000000    -0.24324    
Br36     Br     0.977150000000     0.676050000000     0.335670000000    -0.234397   
Br37     Br     0.885710000000     0.072290000000     0.860220000000    -0.187947   
Br38     Br     0.008390000000     0.322010000000     0.815350000000    -0.237922   
Br39     Br     0.157850000000     0.706630000000     0.635060000000    -0.23211    
Br40     Br     0.542630000000     0.702620000000     0.895980000000    -0.212965   
Br41     Br     0.310300000000     0.972800000000     0.681560000000    -0.211933   
Br42     Br     0.329000000000     0.316060000000     0.583510000000    -0.246644   
Br43     Br     0.591010000000     0.740790000000     0.804020000000    -0.218675   
Br44     Br     0.607490000000     0.876260000000     0.554670000000    -0.235271   
Br45     Br     0.815030000000     0.812010000000     0.683280000000    -0.238382   
Br46     Br     0.498070000000     0.906100000000     0.650940000000    -0.235767   
Br47     Br     0.927660000000     0.545610000000     0.903670000000    -0.235262   
Br48     Br     0.072060000000     0.460960000000     0.575170000000    -0.226749   
Br49     Br     0.902720000000     0.490550000000     0.561860000000    -0.303405   
Br50     Br     0.271900000000     0.043010000000     0.951910000000    -0.245465   
Br51     Br     0.258480000000     0.189260000000     0.759300000000    -0.23632    
Br52     Br     0.319230000000     0.009560000000     0.817020000000    -0.222162   
Br53     Br     0.156850000000     0.466210000000     0.884290000000    -0.22975    
Br54     Br     0.364400000000     0.315870000000     0.841120000000    -0.226886   
Br55     Br     0.530690000000     0.404220000000     0.842470000000    -0.237533   
Br56     Br     0.637040000000     0.604700000000     0.620490000000    -0.255385   
Br57     Br     0.908320000000     0.129870000000     0.900840000000    -0.191802   
Br58     Br     0.876000000000     0.088820000000     0.651050000000    -0.243863   
Br59     Br     0.251810000000     0.392240000000     0.745090000000    -0.380569   
Br60     Br     0.176540000000     0.235690000000     0.486150000000    -0.241254   
Br61     Br     0.978720000000     0.318720000000     0.599730000000    -0.230749   
Br62     Br     0.360240000000     0.460530000000     0.776040000000    -0.222909   
Br63     Br     0.633450000000     0.104410000000     0.886290000000    -0.250578   
Br64     Br     0.385760000000     0.982130000000     0.611810000000    -0.222989   
Br65     Br     0.721940000000     0.020010000000     0.548880000000    -0.231028   
Br66     Br     0.281280000000     0.869340000000     0.816960000000    -0.222018   
Br67     Br     0.077620000000     0.862830000000     0.491810000000    -0.243247   
Br68     Br     0.286280000000     0.850020000000     0.972130000000    -0.234094   
Br69     Br     0.770890000000     0.731510000000     0.955350000000    -0.259314   
Br70     Br     0.952210000000     0.783650000000     0.754360000000    -0.235452   
Br71     Br     0.743940000000     0.552860000000     0.776200000000    -0.24324    
Br72     Br     0.977150000000     0.676050000000     0.835670000000    -0.234385   
C1       C      0.870410000000     0.689970000000     0.277390000000     0.491928   
C2       C      0.816950000000     0.681460000000     0.395340000000     0.480674   
C3       C      0.763480000000     0.645150000000     0.313160000000     0.484848   
C4       C      0.923660000000     0.726580000000     0.355600000000     0.488819   
C5       C      0.158880000000     0.851740000000     0.466470000000     0.489492   
C6       C      0.210070000000     0.894020000000     0.347780000000     0.49565    
C7       C      0.264330000000     0.915770000000     0.428690000000     0.489838   
C8       C      0.104310000000     0.828350000000     0.386520000000     0.476176   
C9       C      0.493660000000     0.020110000000     0.032370000000     0.472647   
C10      C      0.545760000000     0.018920000000     0.414940000000     0.484129   
C11      C      0.599350000000     0.051260000000     0.996100000000     0.475128   
C12      C      0.441020000000     0.987860000000     0.452020000000     0.475892   
C13      C      0.205280000000     0.324770000000     0.096670000000     0.478947   
C14      C      0.164000000000     0.311800000000     0.217950000000     0.49416    
C15      C      0.101390000000     0.282850000000     0.141210000000     0.47524    
C16      C      0.263850000000     0.353370000000     0.176510000000     0.474969   
C17      C      0.884220000000     0.198160000000     0.004090000000     0.476154   
C18      C      0.829570000000     0.142400000000     0.120450000000     0.487897   
C19      C      0.775520000000     0.128160000000     0.040720000000     0.48385    
C20      C      0.936330000000     0.211030000000     0.082570000000     0.486569   
C21      C      0.530860000000     0.520460000000     0.195760000000     0.471982   
C22      C      0.485280000000     0.460150000000     0.312880000000     0.487751   
C23      C      0.427930000000     0.437870000000     0.236420000000     0.488691   
C24      C      0.587830000000     0.540890000000     0.275040000000     0.474182   
C25      C      0.148840000000     0.336550000000     0.343440000000     0.480749   
C26      C      0.184840000000     0.328210000000     0.464120000000     0.488093   
C27      C      0.211330000000     0.295510000000     0.385940000000     0.47903    
C28      C      0.121170000000     0.369490000000     0.419140000000     0.487661   
C29      C      0.340450000000     0.141220000000     0.399120000000     0.482305   
C30      C      0.346580000000     0.188520000000     0.279670000000     0.49014    
C31      C      0.306490000000     0.208960000000     0.354690000000     0.490652   
C32      C      0.382650000000     0.119560000000     0.323440000000     0.484999   
C33      C      0.008420000000     0.534170000000     0.429210000000     0.489687   
C34      C      0.995070000000     0.473580000000     0.045350000000     0.496903   
C35      C      0.032070000000     0.454690000000     0.464100000000     0.481031   
C36      C      0.972980000000     0.552230000000     0.009880000000     0.49458    
C37      C      0.693680000000     0.878360000000     0.083460000000     0.488325   
C38      C      0.687130000000     0.850750000000     0.207310000000     0.474874   
C39      C      0.729890000000     0.819320000000     0.137870000000     0.483543   
C40      C      0.651660000000     0.910600000000     0.151740000000     0.481036   
C41      C      0.888740000000     0.687830000000     0.147570000000     0.478103   
C42      C      0.836440000000     0.684570000000     0.029880000000     0.476344   
C43      C      0.820860000000     0.726290000000     0.106780000000     0.478251   
C44      C      0.903650000000     0.645130000000     0.072070000000     0.475688   
C45      C      0.486380000000     0.024400000000     0.167170000000     0.481619   
C46      C      0.540980000000     0.015520000000     0.282300000000     0.472275   
C47      C      0.558120000000     0.988630000000     0.198830000000     0.483252   
C48      C      0.466330000000     0.051650000000     0.250300000000     0.475457   
C49      C      0.333650000000     0.150180000000     0.034200000000     0.47746    
C50      C      0.345780000000     0.209800000000     0.150720000000     0.478613   
C51      C      0.380290000000     0.260050000000     0.071200000000     0.485206   
C52      C      0.298170000000     0.098920000000     0.114050000000     0.476155   
C53      C      0.542440000000     0.544050000000     0.060580000000     0.477501   
C54      C      0.500550000000     0.484730000000     0.443040000000     0.471015   
C55      C      0.478440000000     0.436800000000     0.026150000000     0.473674   
C56      C      0.564030000000     0.593570000000     0.475900000000     0.47293    
C57      C      0.165200000000     0.849100000000     0.226040000000     0.477387   
C58      C      0.146980000000     0.840400000000     0.101420000000     0.476812   
C59      C      0.108560000000     0.760200000000     0.164500000000     0.486721   
C60      C      0.204320000000     0.931060000000     0.162790000000     0.486102   
C61      C      0.013390000000     0.546370000000     0.297980000000     0.477997   
C62      C      0.998300000000     0.494210000000     0.178880000000     0.475438   
C63      C      0.972110000000     0.437700000000     0.257810000000     0.476117   
C64      C      0.038990000000     0.599800000000     0.219150000000     0.477005   
C65      C      0.850840000000     0.172660000000     0.249390000000     0.474096   
C66      C      0.868230000000     0.189690000000     0.373980000000     0.4886     
C67      C      0.898780000000     0.267870000000     0.306460000000     0.485246   
C68      C      0.821820000000     0.097630000000     0.319940000000     0.486134   
C69      C      0.694890000000     0.873680000000     0.449840000000     0.473678   
C70      C      0.686550000000     0.814260000000     0.333390000000     0.487762   
C71      C      0.648780000000     0.762430000000     0.413620000000     0.482448   
C72      C      0.731220000000     0.923250000000     0.369840000000     0.473385   
C73      C      0.729800000000     0.990460000000     0.348590000000    -0.00947504 
C74      C      0.802160000000     0.995110000000     0.365940000000    -0.0386188  
C75      C      0.754160000000     0.022320000000     0.319820000000    -0.00682289 
C76      C      0.827950000000     0.030930000000     0.339160000000     0.108912   
C77      C      0.904810000000     0.363540000000     0.269610000000    -0.0104055  
C78      C      0.982340000000     0.373010000000     0.273290000000    -0.0433983  
C79      C      0.892410000000     0.336590000000     0.301930000000    -0.00805997 
C80      C      0.968560000000     0.346110000000     0.305720000000     0.117779   
C81      C      0.031930000000     0.667550000000     0.207710000000    -0.0130085  
C82      C      0.103190000000     0.666120000000     0.193560000000    -0.0443561  
C83      C      0.035620000000     0.690840000000     0.174250000000    -0.0068451  
C84      C      0.101230000000     0.683530000000     0.159260000000     0.119598   
C85      C      0.629080000000     0.649820000000     0.443670000000    -0.00532955 
C86      C      0.554920000000     0.645280000000     0.439030000000    -0.0390798  
C87      C      0.653280000000     0.701250000000     0.441360000000    -0.0109477  
C88      C      0.577140000000     0.696330000000     0.432360000000     0.113074   
C89      C      0.225650000000     0.029810000000     0.125180000000    -0.0105613  
C90      C      0.298810000000     0.030430000000     0.134460000000    -0.0453739  
C91      C      0.208290000000     0.004850000000     0.158000000000    -0.00736774 
C92      C      0.279110000000     0.004360000000     0.166830000000     0.118962   
C93      C      0.478260000000     0.370610000000     0.051110000000    -0.00864322 
C94      C      0.412030000000     0.381340000000     0.057580000000    -0.0394031  
C95      C      0.447270000000     0.320520000000     0.044420000000    -0.00814356 
C96      C      0.379670000000     0.330270000000     0.053770000000     0.113783   
C97      C      0.727520000000     0.863100000000     0.260470000000    -0.00911563 
C98      C      0.642870000000     0.813370000000     0.257750000000    -0.0424843  
C99      C      0.729390000000     0.827160000000     0.282280000000    -0.00971828 
C100     C      0.646720000000     0.779190000000     0.280020000000     0.117184   
C101     C      0.741050000000     0.916890000000     0.998160000000    -0.00973637 
C102     C      0.659610000000     0.890430000000     0.997110000000    -0.0414279  
C103     C      0.737680000000     0.897890000000     0.033000000000    -0.00399005 
C104     C      0.652570000000     0.867810000000     0.031110000000     0.119052   
C105     C      0.752060000000     0.722440000000     0.128780000000    -0.0116276  
C106     C      0.821000000000     0.797760000000     0.113880000000    -0.0368153  
C107     C      0.726010000000     0.747490000000     0.123090000000     0.00198506 
C108     C      0.800640000000     0.817590000000     0.137510000000     0.117617   
C109     C      0.654310000000     0.984360000000     0.157990000000    -0.0100993  
C110     C      0.583190000000     0.915560000000     0.143340000000    -0.0403766  
C111     C      0.630900000000     0.996460000000     0.185070000000    -0.00685639 
C112     C      0.557080000000     0.923980000000     0.170300000000     0.115294   
C113     C      0.061100000000     0.585880000000     0.346830000000    -0.00902179 
C114     C      0.981090000000     0.564240000000     0.346450000000    -0.0444147  
C115     C      0.056190000000     0.564340000000     0.380990000000    -0.00619003 
C116     C      0.971020000000     0.536650000000     0.378130000000     0.119301   
C117     C      0.958450000000     0.483390000000     0.126490000000     0.000492647
C118     C      0.034740000000     0.488370000000     0.128020000000    -0.0406771  
C119     C      0.947090000000     0.455850000000     0.094240000000    -0.0324665  
C120     C      0.020050000000     0.456100000000     0.098640000000     0.115814   
C121     C      0.973900000000     0.646600000000     0.055760000000    -0.00856273 
C122     C      0.907250000000     0.574610000000     0.073290000000    -0.0409606  
C123     C      0.979520000000     0.624530000000     0.024740000000    -0.00586579 
C124     C      0.912240000000     0.548720000000     0.044060000000     0.120785   
C125     C      0.368310000000     0.132000000000     0.487530000000    -0.0112193  
C126     C      0.292280000000     0.127290000000     0.481700000000    -0.0375633  
C127     C      0.377700000000     0.151580000000     0.452580000000     0.00193192 
C128     C      0.292050000000     0.106910000000     0.447740000000     0.11813    
C129     C      0.392140000000     0.249750000000     0.199730000000    -0.00616487 
C130     C      0.310240000000     0.219640000000     0.200810000000    -0.0382889  
C131     C      0.389950000000     0.221590000000     0.229720000000    -0.00677114 
C132     C      0.304040000000     0.188810000000     0.230390000000     0.115131   
C133     C      0.462990000000     0.117170000000     0.273030000000    -0.00962982 
C134     C      0.393350000000     0.040440000000     0.271550000000    -0.0441009  
C135     C      0.453440000000     0.121760000000     0.309320000000    -0.00832277 
C136     C      0.383260000000     0.047460000000     0.307520000000     0.116381   
C137     C      0.022060000000     0.384990000000     0.437530000000    -0.00654788 
C138     C      0.087810000000     0.459500000000     0.424830000000    -0.0381103  
C139     C      0.051210000000     0.362890000000     0.439750000000    -0.00534927 
C140     C      0.119670000000     0.440570000000     0.424140000000     0.116496   
C141     C      0.211510000000     0.227710000000     0.365140000000    -0.00828977 
C142     C      0.280690000000     0.303620000000     0.361080000000    -0.039616   
C143     C      0.239400000000     0.207150000000     0.376560000000    -0.00498811 
C144     C      0.310340000000     0.282560000000     0.368530000000     0.115624   
C145     C      0.462530000000     0.484020000000     0.391260000000    -0.00936071 
C146     C      0.518120000000     0.455120000000     0.393090000000    -0.0412274  
C147     C      0.439470000000     0.452150000000     0.362090000000    -0.00764225 
C148     C      0.491770000000     0.422470000000     0.364840000000     0.116154   
C149     C      0.531770000000     0.569940000000     0.150510000000    -0.0117812  
C150     C      0.565040000000     0.518560000000     0.142790000000    -0.0367572  
C151     C      0.518910000000     0.561250000000     0.113610000000     0.00201602 
C152     C      0.584460000000     0.546420000000     0.111010000000     0.117918   
C153     C      0.886640000000     0.242610000000     0.454970000000    -0.0113986  
C154     C      0.920500000000     0.192980000000     0.452810000000    -0.0384709  
C155     C      0.853640000000     0.214980000000     0.427140000000    -0.00598982 
C156     C      0.886760000000     0.163700000000     0.426530000000     0.110514   
C157     C      0.816570000000     0.178190000000     0.196870000000    -0.0116148  
C158     C      0.871720000000     0.149470000000     0.197550000000    -0.0420152  
C159     C      0.789050000000     0.142350000000     0.170740000000    -0.00320449 
C160     C      0.840980000000     0.111700000000     0.173630000000     0.115661   
C161     C      0.105130000000     0.298600000000     0.292740000000    -0.0141645  
C162     C      0.175950000000     0.373440000000     0.289100000000    -0.0540944  
C163     C      0.125720000000     0.277020000000     0.270370000000    -0.00390251 
C164     C      0.198160000000     0.351140000000     0.270450000000     0.151707   
C165     C      0.238330000000     0.371230000000     0.046200000000    -0.00709056 
C166     C      0.208250000000     0.288410000000     0.044310000000    -0.040185   
C167     C      0.210010000000     0.368730000000     0.016340000000    -0.00831131 
C168     C      0.178280000000     0.283210000000     0.014420000000     0.115362   
C169     C      0.028610000000     0.215150000000     0.127490000000    -0.00971865 
C170     C      0.034120000000     0.290750000000     0.132160000000    -0.041225   
C171     C      0.004920000000     0.207730000000     0.094220000000    -0.00803667 
C172     C      0.008340000000     0.282400000000     0.099420000000     0.115098   
C173     C      0.337270000000     0.359540000000     0.184190000000    -0.0172338  
C174     C      0.313120000000     0.408040000000     0.218340000000    -0.170686   
C175     C      0.369880000000     0.365530000000     0.212230000000    -0.000621284
C176     C      0.345840000000     0.410580000000     0.245170000000     0.158749   
C177     C      0.541780000000     0.969950000000     0.330090000000    -0.00883987 
C178     C      0.594480000000     0.052160000000     0.328680000000    -0.0402985  
C179     C      0.527590000000     0.972590000000     0.365600000000    -0.00738781 
C180     C      0.579750000000     0.059360000000     0.362870000000     0.116312   
C181     C      0.485630000000     0.062390000000     0.079120000000    -0.0117116  
C182     C      0.461290000000     0.978850000000     0.084210000000    -0.0370449  
C183     C      0.501250000000     0.067000000000     0.115250000000     0.00306804 
C184     C      0.442440000000     0.983220000000     0.117660000000     0.11675    
C185     C      0.666550000000     0.116070000000     0.020270000000    -0.00725441 
C186     C      0.655830000000     0.038100000000     0.024200000000    -0.03946    
C187     C      0.716010000000     0.134910000000     0.012940000000    -0.00844934 
C188     C      0.706990000000     0.057510000000     0.020680000000     0.113022   
C189     C      0.153390000000     0.877550000000     0.279140000000    -0.0102498  
C190     C      0.201810000000     0.841210000000     0.276530000000    -0.0424421  
C191     C      0.192240000000     0.918740000000     0.296240000000    -0.00809673 
C192     C      0.239260000000     0.882740000000     0.293950000000     0.121389   
C193     C      0.153370000000     0.803940000000     0.050720000000    -0.00689564 
C194     C      0.106720000000     0.840630000000     0.050730000000    -0.038099   
C195     C      0.174230000000     0.825180000000     0.017580000000    -0.00958607 
C196     C      0.126470000000     0.863740000000     0.017420000000     0.115194   
C197     C      0.381350000000     0.998200000000     0.425210000000    -0.0106027  
C198     C      0.366710000000     0.920910000000     0.441640000000    -0.0445921  
C199     C      0.335350000000     0.986770000000     0.439840000000    -0.00970382 
C200     C      0.325750000000     0.913790000000     0.460820000000     0.120724   
C201     C      0.783910000000     0.644210000000     0.483980000000    -0.0101642  
C202     C      0.847110000000     0.725880000000     0.477890000000    -0.0371414  
C203     C      0.792350000000     0.639040000000     0.447400000000     0.00112656 
C204     C      0.822170000000     0.724110000000     0.445920000000     0.11951    
C205     C      0.888840000000     0.646770000000     0.197880000000    -0.00416606 
C206     C      0.933040000000     0.730290000000     0.196520000000    -0.0371545  
C207     C      0.861840000000     0.647060000000     0.227510000000    -0.00860886 
C208     C      0.908000000000     0.734110000000     0.226830000000     0.114163   
C209     C      0.645700000000     0.611720000000     0.302400000000    -0.0121889  
C210     C      0.659800000000     0.547140000000     0.291670000000    -0.0435396  
C211     C      0.695200000000     0.645230000000     0.293520000000    -0.00771121 
C212     C      0.706090000000     0.580690000000     0.278590000000     0.118366   
C213     C      0.034230000000     0.826050000000     0.368970000000    -0.00908074 
C214     C      0.045340000000     0.760310000000     0.358180000000    -0.0402018  
C215     C      0.986410000000     0.794080000000     0.380410000000    -0.00506772 
C216     C      0.995750000000     0.726940000000     0.366370000000     0.116925   
C217     C      0.870410000000     0.689960000000     0.777390000000     0.491924   
C218     C      0.816950000000     0.681470000000     0.895340000000     0.48067    
C219     C      0.763480000000     0.645150000000     0.813160000000     0.484854   
C220     C      0.923660000000     0.726570000000     0.855590000000     0.488693   
C221     C      0.158880000000     0.851730000000     0.966470000000     0.489379   
C222     C      0.210070000000     0.894030000000     0.847780000000     0.495593   
C223     C      0.264330000000     0.915770000000     0.928690000000     0.489716   
C224     C      0.104310000000     0.828350000000     0.886520000000     0.476122   
C225     C      0.493660000000     0.020110000000     0.532370000000     0.472642   
C226     C      0.545760000000     0.018920000000     0.914950000000     0.484495   
C227     C      0.599350000000     0.051260000000     0.496100000000     0.475244   
C228     C      0.441020000000     0.987860000000     0.952020000000     0.475649   
C229     C      0.205280000000     0.324770000000     0.596670000000     0.479087   
C230     C      0.164000000000     0.311800000000     0.717950000000     0.494165   
C231     C      0.101390000000     0.282850000000     0.641210000000     0.475223   
C232     C      0.263850000000     0.353370000000     0.676510000000     0.475012   
C233     C      0.884220000000     0.198160000000     0.504100000000     0.476183   
C234     C      0.829570000000     0.142400000000     0.620450000000     0.487803   
C235     C      0.775520000000     0.128160000000     0.540720000000     0.483848   
C236     C      0.936330000000     0.211030000000     0.582570000000     0.486534   
C237     C      0.530860000000     0.520460000000     0.695760000000     0.471843   
C238     C      0.485280000000     0.460150000000     0.812880000000     0.4877     
C239     C      0.427930000000     0.437870000000     0.736420000000     0.488684   
C240     C      0.587830000000     0.540890000000     0.775040000000     0.473968   
C241     C      0.148840000000     0.336550000000     0.843440000000     0.480713   
C242     C      0.184840000000     0.328210000000     0.964120000000     0.488061   
C243     C      0.211330000000     0.295510000000     0.885940000000     0.479031   
C244     C      0.121170000000     0.369480000000     0.919140000000     0.487536   
C245     C      0.340450000000     0.141220000000     0.899120000000     0.482309   
C246     C      0.346580000000     0.188520000000     0.779670000000     0.490141   
C247     C      0.306490000000     0.208960000000     0.854690000000     0.490652   
C248     C      0.382650000000     0.119560000000     0.823440000000     0.484999   
C249     C      0.008420000000     0.534180000000     0.929210000000     0.489682   
C250     C      0.995070000000     0.473580000000     0.545350000000     0.496905   
C251     C      0.032070000000     0.454690000000     0.964100000000     0.481063   
C252     C      0.972980000000     0.552230000000     0.509880000000     0.494581   
C253     C      0.693680000000     0.878360000000     0.583460000000     0.488175   
C254     C      0.687130000000     0.850750000000     0.707310000000     0.47487    
C255     C      0.729890000000     0.819320000000     0.637870000000     0.483536   
C256     C      0.651660000000     0.910600000000     0.651740000000     0.481034   
C257     C      0.888740000000     0.687830000000     0.647570000000     0.478075   
C258     C      0.836440000000     0.684570000000     0.529880000000     0.476129   
C259     C      0.820860000000     0.726290000000     0.606780000000     0.47801    
C260     C      0.903650000000     0.645130000000     0.572070000000     0.47539    
C261     C      0.486380000000     0.024400000000     0.667170000000     0.48162    
C262     C      0.540980000000     0.015520000000     0.782300000000     0.472319   
C263     C      0.558120000000     0.988630000000     0.698830000000     0.483252   
C264     C      0.466330000000     0.051650000000     0.750300000000     0.475457   
C265     C      0.333650000000     0.150180000000     0.534200000000     0.477461   
C266     C      0.345780000000     0.209800000000     0.650720000000     0.478618   
C267     C      0.380290000000     0.260050000000     0.571200000000     0.485126   
C268     C      0.298170000000     0.098920000000     0.614050000000     0.476158   
C269     C      0.542440000000     0.544050000000     0.560580000000     0.477759   
C270     C      0.500550000000     0.484730000000     0.943040000000     0.471159   
C271     C      0.478440000000     0.436800000000     0.526150000000     0.473671   
C272     C      0.564030000000     0.593570000000     0.975900000000     0.472659   
C273     C      0.165200000000     0.849090000000     0.726040000000     0.477507   
C274     C      0.146980000000     0.840400000000     0.601420000000     0.476766   
C275     C      0.108560000000     0.760200000000     0.664500000000     0.486529   
C276     C      0.204320000000     0.931060000000     0.662790000000     0.4861     
C277     C      0.013390000000     0.546370000000     0.797980000000     0.478019   
C278     C      0.998300000000     0.494210000000     0.678880000000     0.475848   
C279     C      0.972110000000     0.437700000000     0.757810000000     0.476185   
C280     C      0.038990000000     0.599810000000     0.719150000000     0.477016   
C281     C      0.850840000000     0.172660000000     0.749390000000     0.474399   
C282     C      0.868240000000     0.189690000000     0.873980000000     0.488293   
C283     C      0.898780000000     0.267870000000     0.806460000000     0.48499    
C284     C      0.821820000000     0.097630000000     0.819940000000     0.486129   
C285     C      0.694890000000     0.873670000000     0.949840000000     0.47373    
C286     C      0.686550000000     0.814260000000     0.833390000000     0.48771    
C287     C      0.648780000000     0.762430000000     0.913620000000     0.482434   
C288     C      0.731220000000     0.923250000000     0.869840000000     0.473359   
C289     C      0.729800000000     0.990460000000     0.848590000000    -0.00950747 
C290     C      0.802160000000     0.995110000000     0.865940000000    -0.0386195  
C291     C      0.754160000000     0.022320000000     0.819820000000    -0.00681162 
C292     C      0.827950000000     0.030930000000     0.839160000000     0.108914   
C293     C      0.904820000000     0.363540000000     0.769610000000    -0.0103025  
C294     C      0.982340000000     0.373010000000     0.773290000000    -0.0433487  
C295     C      0.892410000000     0.336590000000     0.801930000000    -0.00810961 
C296     C      0.968560000000     0.346110000000     0.805730000000     0.11777    
C297     C      0.031930000000     0.667550000000     0.707710000000    -0.0129626  
C298     C      0.103190000000     0.666120000000     0.693570000000    -0.044294   
C299     C      0.035610000000     0.690840000000     0.674240000000    -0.0069552  
C300     C      0.101230000000     0.683530000000     0.659260000000     0.119533   
C301     C      0.629080000000     0.649820000000     0.943670000000    -0.00533401 
C302     C      0.554920000000     0.645280000000     0.939030000000    -0.0390932  
C303     C      0.653280000000     0.701250000000     0.941360000000    -0.0109665  
C304     C      0.577140000000     0.696330000000     0.932360000000     0.113078   
C305     C      0.225650000000     0.029810000000     0.625180000000    -0.0105518  
C306     C      0.298810000000     0.030430000000     0.634460000000    -0.0453581  
C307     C      0.208290000000     0.004850000000     0.658000000000    -0.00739447 
C308     C      0.279110000000     0.004360000000     0.666830000000     0.118957   
C309     C      0.478260000000     0.370610000000     0.551110000000    -0.00865501 
C310     C      0.412030000000     0.381340000000     0.557580000000    -0.0394118  
C311     C      0.447270000000     0.320520000000     0.544420000000    -0.00812125 
C312     C      0.379670000000     0.330270000000     0.553770000000     0.11379    
C313     C      0.727520000000     0.863100000000     0.760470000000    -0.0091039  
C314     C      0.642860000000     0.813370000000     0.757750000000    -0.0425708  
C315     C      0.729390000000     0.827160000000     0.782280000000    -0.00974562 
C316     C      0.646720000000     0.779190000000     0.780020000000     0.117205   
C317     C      0.741050000000     0.916890000000     0.498160000000    -0.0096214  
C318     C      0.659610000000     0.890430000000     0.497110000000    -0.0413177  
C319     C      0.737680000000     0.897890000000     0.533000000000    -0.00406049 
C320     C      0.652570000000     0.867810000000     0.531110000000     0.118996   
C321     C      0.752060000000     0.722440000000     0.628780000000    -0.0116598  
C322     C      0.821000000000     0.797760000000     0.613880000000    -0.0367842  
C323     C      0.726010000000     0.747490000000     0.623090000000     0.0020177  
C324     C      0.800640000000     0.817600000000     0.637510000000     0.117591   
C325     C      0.654310000000     0.984360000000     0.657990000000    -0.0101039  
C326     C      0.583190000000     0.915560000000     0.643340000000    -0.0403901  
C327     C      0.630900000000     0.996460000000     0.685070000000    -0.00684778 
C328     C      0.557080000000     0.923980000000     0.670300000000     0.115295   
C329     C      0.061100000000     0.585880000000     0.846830000000    -0.00901052 
C330     C      0.981090000000     0.564240000000     0.846450000000    -0.0443807  
C331     C      0.056190000000     0.564340000000     0.880990000000    -0.00620174 
C332     C      0.971020000000     0.536650000000     0.878130000000     0.119295   
C333     C      0.958450000000     0.483390000000     0.626490000000     0.00053606 
C334     C      0.034740000000     0.488380000000     0.628020000000    -0.0406273  
C335     C      0.947090000000     0.455850000000     0.594240000000    -0.032494   
C336     C      0.020050000000     0.456100000000     0.598640000000     0.115794   
C337     C      0.973900000000     0.646600000000     0.555760000000    -0.00859438 
C338     C      0.907250000000     0.574610000000     0.573290000000    -0.0409499  
C339     C      0.979520000000     0.624530000000     0.524740000000    -0.00580709 
C340     C      0.912240000000     0.548720000000     0.544060000000     0.12076    
C341     C      0.368310000000     0.132000000000     0.987530000000    -0.0113558  
C342     C      0.292280000000     0.127290000000     0.981700000000    -0.0376013  
C343     C      0.377690000000     0.151580000000     0.952580000000     0.00204724 
C344     C      0.292050000000     0.106910000000     0.947740000000     0.118139   
C345     C      0.392140000000     0.249750000000     0.699730000000    -0.00615335 
C346     C      0.310240000000     0.219640000000     0.700810000000    -0.038279   
C347     C      0.389950000000     0.221590000000     0.729720000000    -0.00676936 
C348     C      0.304040000000     0.188810000000     0.730400000000     0.115176   
C349     C      0.462990000000     0.117170000000     0.773030000000    -0.00965507 
C350     C      0.393350000000     0.040440000000     0.771550000000    -0.0441073  
C351     C      0.453440000000     0.121760000000     0.809320000000    -0.00831042 
C352     C      0.383250000000     0.047460000000     0.807520000000     0.116414   
C353     C      0.022060000000     0.384990000000     0.937530000000    -0.00651504 
C354     C      0.087810000000     0.459500000000     0.924830000000    -0.0380814  
C355     C      0.051210000000     0.362890000000     0.939760000000    -0.00542886 
C356     C      0.119670000000     0.440570000000     0.924140000000     0.116482   
C357     C      0.211510000000     0.227710000000     0.865140000000    -0.00827485 
C358     C      0.280690000000     0.303620000000     0.861080000000    -0.0395639  
C359     C      0.239400000000     0.207150000000     0.876560000000    -0.00499515 
C360     C      0.310340000000     0.282560000000     0.868530000000     0.115584   
C361     C      0.462530000000     0.484020000000     0.891260000000    -0.00935849 
C362     C      0.518120000000     0.455120000000     0.893090000000    -0.0411961  
C363     C      0.439470000000     0.452150000000     0.862090000000    -0.00761579 
C364     C      0.491770000000     0.422470000000     0.864840000000     0.116155   
C365     C      0.531770000000     0.569940000000     0.650510000000    -0.0117845  
C366     C      0.565040000000     0.518560000000     0.642790000000    -0.0367918  
C367     C      0.518910000000     0.561250000000     0.613620000000     0.00200736 
C368     C      0.584460000000     0.546410000000     0.611010000000     0.117882   
C369     C      0.886640000000     0.242610000000     0.954970000000    -0.0113855  
C370     C      0.920500000000     0.192980000000     0.952800000000    -0.0385282  
C371     C      0.853640000000     0.214980000000     0.927140000000    -0.00599637 
C372     C      0.886760000000     0.163700000000     0.926530000000     0.110524   
C373     C      0.816570000000     0.178190000000     0.696870000000    -0.0115983  
C374     C      0.871710000000     0.149470000000     0.697550000000    -0.041847   
C375     C      0.789050000000     0.142350000000     0.670740000000    -0.00321378 
C376     C      0.840980000000     0.111690000000     0.673630000000     0.115595   
C377     C      0.105130000000     0.298600000000     0.792740000000    -0.0141809  
C378     C      0.175950000000     0.373440000000     0.789110000000    -0.0540143  
C379     C      0.125720000000     0.277020000000     0.770360000000    -0.00387032 
C380     C      0.198160000000     0.351140000000     0.770450000000     0.151651   
C381     C      0.238330000000     0.371230000000     0.546200000000    -0.00714883 
C382     C      0.208250000000     0.288410000000     0.544310000000    -0.0401475  
C383     C      0.210010000000     0.368720000000     0.516340000000    -0.00823668 
C384     C      0.178280000000     0.283210000000     0.514420000000     0.115288   
C385     C      0.028610000000     0.215150000000     0.627490000000    -0.00972103 
C386     C      0.034120000000     0.290750000000     0.632160000000    -0.0412242  
C387     C      0.004920000000     0.207730000000     0.594220000000    -0.00803538 
C388     C      0.008340000000     0.282400000000     0.599420000000     0.115099   
C389     C      0.337270000000     0.359540000000     0.684190000000    -0.0171924  
C390     C      0.313120000000     0.408040000000     0.718340000000    -0.17082    
C391     C      0.369880000000     0.365530000000     0.712230000000    -0.000632659
C392     C      0.345830000000     0.410580000000     0.745180000000     0.158776   
C393     C      0.541780000000     0.969950000000     0.830090000000    -0.00883431 
C394     C      0.594480000000     0.052160000000     0.828690000000    -0.040312   
C395     C      0.527590000000     0.972590000000     0.865600000000    -0.00738718 
C396     C      0.579750000000     0.059360000000     0.862870000000     0.116323   
C397     C      0.485630000000     0.062390000000     0.579130000000    -0.0117194  
C398     C      0.461300000000     0.978850000000     0.584210000000    -0.0370667  
C399     C      0.501250000000     0.067000000000     0.615250000000     0.00307585 
C400     C      0.442440000000     0.983220000000     0.617660000000     0.116754   
C401     C      0.666550000000     0.116070000000     0.520260000000    -0.00717208 
C402     C      0.655830000000     0.038100000000     0.524200000000    -0.0394653  
C403     C      0.716010000000     0.134910000000     0.512940000000    -0.00854022 
C404     C      0.706990000000     0.057510000000     0.520680000000     0.112976   
C405     C      0.153390000000     0.877550000000     0.779140000000    -0.0102213  
C406     C      0.201810000000     0.841210000000     0.776530000000    -0.0424442  
C407     C      0.192240000000     0.918740000000     0.796240000000    -0.00813231 
C408     C      0.239260000000     0.882740000000     0.793950000000     0.121392   
C409     C      0.153370000000     0.803940000000     0.550720000000    -0.0068939  
C410     C      0.106710000000     0.840630000000     0.550740000000    -0.0381275  
C411     C      0.174230000000     0.825180000000     0.517580000000    -0.00961325 
C412     C      0.126470000000     0.863750000000     0.517420000000     0.115111   
C413     C      0.381350000000     0.998200000000     0.925210000000    -0.0106038  
C414     C      0.366710000000     0.920910000000     0.941640000000    -0.0446669  
C415     C      0.335350000000     0.986770000000     0.939840000000    -0.00974806 
C416     C      0.325750000000     0.913790000000     0.960820000000     0.120763   
C417     C      0.783910000000     0.644210000000     0.983990000000    -0.0101579  
C418     C      0.847110000000     0.725870000000     0.977890000000    -0.0370399  
C419     C      0.792350000000     0.639040000000     0.947400000000     0.00113361 
C420     C      0.822170000000     0.724110000000     0.945920000000     0.119466   
C421     C      0.888840000000     0.646770000000     0.697880000000    -0.004161   
C422     C      0.933040000000     0.730290000000     0.696520000000    -0.0371538  
C423     C      0.861840000000     0.647060000000     0.727510000000    -0.00861765 
C424     C      0.908000000000     0.734120000000     0.726830000000     0.114185   
C425     C      0.645700000000     0.611710000000     0.802400000000    -0.0120798  
C426     C      0.659800000000     0.547140000000     0.791670000000    -0.0435264  
C427     C      0.695200000000     0.645230000000     0.793520000000    -0.00775246 
C428     C      0.706090000000     0.580690000000     0.778590000000     0.118362   
C429     C      0.034230000000     0.826050000000     0.868970000000    -0.00904449 
C430     C      0.045340000000     0.760310000000     0.858180000000    -0.040171   
C431     C      0.986410000000     0.794080000000     0.880410000000    -0.00507931 
C432     C      0.995750000000     0.726940000000     0.866380000000     0.116866   
H1       H      0.805400000000     0.012290000000     0.390060000000     0.0668755  
H2       H      0.728440000000     0.010650000000     0.369710000000     0.0473929  
H3       H      0.736430000000     0.041000000000     0.313380000000     0.0440156  
H4       H      0.818710000000     0.974480000000     0.368960000000     0.0650614  
H5       H      0.834080000000     0.014330000000     0.317710000000     0.0288539  
H6       H      0.694770000000     0.966370000000     0.340820000000     0.0444527  
H7       H      0.751710000000     0.001440000000     0.297920000000     0.0380889  
H8       H      0.977360000000     0.349430000000     0.252630000000     0.0616713  
H9       H      0.893500000000     0.339290000000     0.248570000000     0.0410652  
H10      H      0.855630000000     0.312750000000     0.302150000000     0.0440877  
H11      H      0.018640000000     0.398650000000     0.274390000000     0.0689194  
H12      H      0.975750000000     0.371110000000     0.325850000000     0.0281779  
H13      H      0.886130000000     0.382250000000     0.268290000000     0.0445411  
H14      H      0.900140000000     0.360540000000     0.322870000000     0.0397107  
H15      H      0.125500000000     0.695220000000     0.209670000000     0.0639111  
H16      H      0.046620000000     0.694240000000     0.227050000000     0.0468791  
H17      H      0.021820000000     0.713970000000     0.176750000000     0.0457009  
H18      H      0.117810000000     0.643630000000     0.191500000000     0.0691491  
H19      H      0.077140000000     0.653650000000     0.144450000000     0.0271172  
H20      H      0.995910000000     0.645320000000     0.213950000000     0.0480786  
H21      H      0.014490000000     0.664370000000     0.155890000000     0.0382063  
H22      H      0.545990000000     0.626800000000     0.415000000000     0.0628867  
H23      H      0.626810000000     0.635810000000     0.418410000000     0.0440653  
H24      H      0.684730000000     0.712130000000     0.427210000000     0.0663122  
H25      H      0.522770000000     0.634620000000     0.452230000000     0.0640034  
H26      H      0.571960000000     0.712550000000     0.454500000000     0.0310494  
H27      H      0.649540000000     0.640010000000     0.459250000000     0.0517852  
H28      H      0.662860000000     0.715550000000     0.466750000000     0.054094   
H29      H      0.293790000000     0.005770000000     0.114620000000     0.0739301  
H30      H      0.213590000000     0.004450000000     0.104850000000     0.0455499  
H31      H      0.171050000000     0.984840000000     0.157100000000     0.0460218  
H32      H      0.335510000000     0.053400000000     0.137580000000     0.0734959  
H33      H      0.287270000000     0.030420000000     0.186300000000     0.0283588  
H34      H      0.210680000000     0.051710000000     0.121280000000     0.046873   
H35      H      0.217780000000     0.030310000000     0.178110000000     0.0415185  
H36      H      0.417990000000     0.389610000000     0.084430000000     0.0582015  
H37      H      0.486340000000     0.375260000000     0.078010000000     0.0384942  
H38      H      0.464370000000     0.302110000000     0.053150000000     0.0422061  
H39      H      0.395360000000     0.399540000000     0.547500000000     0.0629461  
H40      H      0.366490000000     0.323780000000     0.028000000000     0.0295028  
H41      H      0.510080000000     0.382050000000     0.037260000000     0.042231   
H42      H      0.442980000000     0.315520000000     0.017150000000     0.0391332  
H43      H      0.635110000000     0.835200000000     0.273610000000     0.0625943  
H44      H      0.727720000000     0.889390000000     0.276840000000     0.0413652  
H45      H      0.759400000000     0.843830000000     0.298620000000     0.0458423  
H46      H      0.614390000000     0.795200000000     0.240250000000     0.0665419  
H47      H      0.651230000000     0.755870000000     0.263290000000     0.0301301  
H48      H      0.758180000000     0.879480000000     0.244780000000     0.0508027  
H49      H      0.733090000000     0.803010000000     0.265920000000     0.0488381  
H50      H      0.666670000000     0.925710000000     0.000600000000     0.0705439  
H51      H      0.749410000000     0.952700000000     0.000640000000     0.0511337  
H52      H      0.767130000000     0.922690000000     0.047700000000     0.0487008  
H53      H      0.628200000000     0.871840000000     0.982420000000     0.065473   
H54      H      0.638470000000     0.830900000000     0.027350000000     0.0321833  
H55      H      0.769190000000     0.916900000000     0.984620000000     0.0466038  
H56      H      0.740460000000     0.866910000000     0.030950000000     0.0402389  
H57      H      0.857590000000     0.813720000000     0.118980000000     0.0647574  
H58      H      0.752960000000     0.716360000000     0.155740000000     0.0632056  
H59      H      0.693460000000     0.729330000000     0.136500000000     0.0545388  
H60      H      0.817540000000     0.806970000000     0.088050000000     0.0499122  
H61      H      0.817090000000     0.854420000000     0.132260000000     0.0324026  
H62      H      0.733390000000     0.688750000000     0.116740000000     0.0632705  
H63      H      0.718030000000     0.746200000000     0.096280000000     0.0459887  
H64      H      0.581450000000     0.932020000000     0.120010000000     0.0725348  
H65      H      0.653740000000     0.001400000000     0.134650000000     0.049969   
H66      H      0.644630000000     0.033640000000     0.184490000000     0.0423649  
H67      H      0.566680000000     0.878670000000     0.138380000000     0.0762347  
H68      H      0.551750000000     0.901000000000     0.191470000000     0.0328563  
H69      H      0.690000000000     0.997800000000     0.165060000000     0.0499365  
H70      H      0.640300000000     0.988560000000     0.209500000000     0.0373322  
H71      H      0.991480000000     0.599650000000     0.353250000000     0.0783963  
H72      H      0.071500000000     0.622080000000     0.350560000000     0.0432878  
H73      H      0.084290000000     0.588640000000     0.396980000000     0.0467746  
H74      H      0.950060000000     0.550720000000     0.331260000000     0.0717009  
H75      H      0.954730000000     0.500220000000     0.371470000000     0.031032   
H76      H      0.088380000000     0.584790000000     0.332860000000     0.0481645  
H77      H      0.060730000000     0.534470000000     0.378000000000     0.039609   
H78      H      0.055470000000     0.523610000000     0.118830000000     0.0665955  
H79      H      0.968370000000     0.518890000000     0.120170000000     0.0466078  
H80      H      0.927910000000     0.468560000000     0.079150000000     0.11455    
H81      H      0.056100000000     0.480960000000     0.144600000000     0.0677448  
H82      H      0.001960000000     0.421300000000     0.109010000000     0.0424537  
H83      H      0.927100000000     0.469650000000     0.141360000000     0.0475221  
H84      H      0.925060000000     0.419410000000     0.100090000000     0.0560624  
H85      H      0.925720000000     0.571810000000     0.094960000000     0.0565137  
H86      H      0.994400000000     0.643780000000     0.075940000000     0.0424201  
H87      H      0.015960000000     0.639410000000     0.519470000000     0.0475685  
H88      H      0.871250000000     0.558020000000     0.080380000000     0.0622137  
H89      H      0.885380000000     0.541420000000     0.025670000000     0.0344635  
H90      H      0.987040000000     0.683090000000     0.050770000000     0.0465997  
H91      H      0.964800000000     0.633350000000     0.003470000000     0.0462989  
H92      H      0.260400000000     0.104990000000     0.495050000000     0.0649269  
H93      H      0.359060000000     0.095870000000     0.486480000000     0.0562606  
H94      H      0.403820000000     0.146080000000     0.440790000000     0.0367026  
H95      H      0.293150000000     0.159950000000     0.477710000000     0.0528506  
H96      H      0.266430000000     0.108980000000     0.432150000000     0.0270377  
H97      H      0.399800000000     0.150040000000     0.502180000000     0.0428705  
H98      H      0.391490000000     0.188730000000     0.454080000000     0.0430458  
H99      H      0.316140000000     0.252800000000     0.210190000000     0.0614668  
H100     H      0.397860000000     0.282960000000     0.208820000000     0.03935    
H101     H      0.419200000000     0.242600000000     0.246010000000     0.0459184  
H102     H      0.279020000000     0.204260000000     0.185710000000     0.0621529  
H103     H      0.290580000000     0.153710000000     0.221160000000     0.0303724  
H104     H      0.421180000000     0.256260000000     0.183860000000     0.0404657  
H105     H      0.393910000000     0.192930000000     0.220930000000     0.0389778  
H106     H      0.374430000000     0.050770000000     0.254750000000     0.0683462  
H107     H      0.448240000000     0.133300000000     0.257410000000     0.0405862  
H108     H      0.469590000000     0.158240000000     0.315570000000     0.0449801  
H109     H      0.380950000000     0.003940000000     0.267220000000     0.0783382  
H110     H      0.399730000000     0.033460000000     0.323540000000     0.0295851  
H111     H      0.499910000000     0.135850000000     0.269120000000     0.0430139  
H112     H      0.469500000000     0.106940000000     0.324940000000     0.0397776  
H113     H      0.075050000000     0.458690000000     0.399340000000     0.0605771  
H114     H      0.009440000000     0.381590000000     0.411700000000     0.0460272  
H115     H      0.032730000000     0.329090000000     0.427770000000     0.0506969  
H116     H      0.107130000000     0.495720000000     0.432160000000     0.0620343  
H117     H      0.142390000000     0.454000000000     0.445940000000     0.0345438  
H118     H      0.992650000000     0.366890000000     0.954290000000     0.0453337  
H119     H      0.055090000000     0.356900000000     0.466330000000     0.0464218  
H120     H      0.278610000000     0.306640000000     0.333760000000     0.0698164  
H121     H      0.207430000000     0.223900000000     0.337780000000     0.0521647  
H122     H      0.221630000000     0.170950000000     0.369240000000     0.0509696  
H123     H      0.297460000000     0.338450000000     0.371400000000     0.066583   
H124     H      0.321000000000     0.289510000000     0.394900000000     0.0292355  
H125     H      0.177660000000     0.208430000000     0.376540000000     0.0523651  
H126     H      0.240780000000     0.208250000000     0.404100000000     0.0461735  
H127     H      0.548380000000     0.484860000000     0.382620000000     0.0612569  
H128     H      0.484110000000     0.518730000000     0.381370000000     0.0468708  
H129     H      0.423480000000     0.466350000000     0.345790000000     0.0589647  
H130     H      0.529760000000     0.437790000000     0.410460000000     0.0630208  
H131     H      0.464300000000     0.391280000000     0.376370000000     0.0376589  
H132     H      0.436330000000     0.484820000000     0.406910000000     0.0471805  
H133     H      0.412120000000     0.419710000000     0.372190000000     0.0523596  
H134     H      0.592210000000     0.517220000000     0.156820000000     0.059694   
H135     H      0.561380000000     0.604240000000     0.153540000000     0.0597854  
H136     H      0.517350000000     0.590560000000     0.103150000000     0.0432195  
H137     H      0.540350000000     0.483150000000     0.135800000000     0.0478036  
H138     H      0.596670000000     0.527960000000     0.095420000000     0.0280718  
H139     H      0.503630000000     0.569750000000     0.164210000000     0.0468994  
H140     H      0.484520000000     0.531470000000     0.111590000000     0.0418838  
H141     H      0.950800000000     0.220080000000     0.440210000000     0.058769   
H142     H      0.916970000000     0.271170000000     0.443500000000     0.041021   
H143     H      0.847430000000     0.238050000000     0.411380000000     0.0403987  
H144     H      0.930940000000     0.172600000000     0.467960000000     0.0644983  
H145     H      0.857090000000     0.137040000000     0.440030000000     0.0343878  
H146     H      0.870850000000     0.256870000000     0.471370000000     0.044416   
H147     H      0.821230000000     0.189780000000     0.438560000000     0.0425919  
H148     H      0.898310000000     0.177980000000     0.183050000000     0.0615163  
H149     H      0.838440000000     0.210570000000     0.183800000000     0.0450242  
H150     H      0.772260000000     0.155180000000     0.153940000000     0.0390078  
H151     H      0.888220000000     0.136420000000     0.214430000000     0.0659831  
H152     H      0.815540000000     0.083180000000     0.188820000000     0.0265377  
H153     H      0.793500000000     0.183600000000     0.213010000000     0.0414614  
H154     H      0.762280000000     0.112250000000     0.183820000000     0.0356257  
H155     H      0.160020000000     0.385570000000     0.270920000000     0.0726201  
H156     H      0.086780000000     0.310290000000     0.276550000000     0.054904   
H157     H      0.099420000000     0.251590000000     0.253720000000     0.0380581  
H158     H      0.201450000000     0.403060000000     0.303300000000     0.0824884  
H159     H      0.211340000000     0.337280000000     0.289590000000     0.0279181  
H160     H      0.080340000000     0.272710000000     0.309880000000     0.0552538  
H161     H      0.138570000000     0.259530000000     0.286430000000     0.0446042  
H162     H      0.240960000000     0.293560000000     0.035080000000     0.0721558  
H163     H      0.271580000000     0.377910000000     0.036990000000     0.0455603  
H164     H      0.229620000000     0.399620000000     0.001080000000     0.0465204  
H165     H      0.192050000000     0.256650000000     0.059030000000     0.0655441  
H166     H      0.143640000000     0.271370000000     0.023490000000     0.0296451  
H167     H      0.244130000000     0.400140000000     0.062210000000     0.0465925  
H168     H      0.179990000000     0.369630000000     0.025530000000     0.0435698  
H169     H      0.009570000000     0.279940000000     0.152880000000     0.0607504  
H170     H      0.002690000000     0.200110000000     0.147260000000     0.0477775  
H171     H      0.983170000000     0.170720000000     0.090590000000     0.0540042  
H172     H      0.057850000000     0.327550000000     0.135100000000     0.0699431  
H173     H      0.033940000000     0.297140000000     0.079420000000     0.0317661  
H174     H      0.047950000000     0.197060000000     0.127420000000     0.0477428  
H175     H      0.030740000000     0.220380000000     0.074310000000     0.0426477  
H176     H      0.328240000000     0.440880000000     0.205010000000     0.102093   
H177     H      0.357050000000     0.381950000000     0.163350000000     0.0493098  
H178     H      0.398870000000     0.364080000000     0.201440000000     0.0438924  
H179     H      0.286040000000     0.405090000000     0.228020000000     0.240357   
H180     H      0.327130000000     0.379880000000     0.260890000000     0.0358045  
H181     H      0.321420000000     0.324270000000     0.174740000000     0.0549032  
H182     H      0.352520000000     0.336630000000     0.229680000000     0.0487826  
H183     H      0.622930000000     0.045680000000     0.331800000000     0.0575701  
H184     H      0.570030000000     0.962920000000     0.331370000000     0.0378714  
H185     H      0.527550000000     0.945010000000     0.380300000000     0.0462246  
H186     H      0.606760000000     0.083630000000     0.313910000000     0.0595603  
H187     H      0.557450000000     0.073930000000     0.359400000000     0.0296188  
H188     H      0.513610000000     0.940970000000     0.317090000000     0.0474204  
H189     H      0.492180000000     0.965120000000     0.364950000000     0.0423058  
H190     H      0.434700000000     0.949930000000     0.070010000000     0.0686631  
H191     H      0.453170000000     0.061940000000     0.078080000000     0.0564821  
H192     H      0.499140000000     0.095180000000     0.127260000000     0.037711   
H193     H      0.488220000000     0.970530000000     0.088960000000     0.0641498  
H194     H      0.434470000000     0.952650000000     0.132440000000     0.0478894  
H195     H      0.510430000000     0.092970000000     0.065370000000     0.0406027  
H196     H      0.537280000000     0.076540000000     0.115440000000     0.0411258  
H197     H      0.646880000000     0.033150000000     0.050950000000     0.0639871  
H198     H      0.662460000000     0.118830000000     0.047350000000     0.039549   
H199     H      0.734550000000     0.170670000000     0.021340000000     0.0436694  
H200     H      0.638290000000     0.004210000000     0.512290000000     0.0682232  
H201     H      0.714000000000     0.052420000000     0.994640000000     0.0298009  
H202     H      0.655210000000     0.137340000000     0.007330000000     0.0458708  
H203     H      0.720310000000     0.135170000000     0.985610000000     0.0438202  
H204     H      0.182190000000     0.815230000000     0.295590000000     0.063065   
H205     H      0.130580000000     0.854250000000     0.298530000000     0.0421945  
H206     H      0.178470000000     0.935420000000     0.312240000000     0.0476908  
H207     H      0.216510000000     0.826580000000     0.259410000000     0.0696167  
H208     H      0.259430000000     0.907330000000     0.274220000000     0.0435348  
H209     H      0.134100000000     0.889090000000     0.263880000000     0.0475403  
H210     H      0.213550000000     0.943370000000     0.276890000000     0.0521753  
H211     H      0.075600000000     0.807760000000     0.046170000000     0.0586421  
H212     H      0.123530000000     0.770200000000     0.045870000000     0.0436937  
H213     H      0.178140000000     0.799880000000     0.002810000000     0.0594678  
H214     H      0.097480000000     0.862360000000     0.065380000000     0.059994   
H215     H      0.151830000000     0.899710000000     0.022230000000     0.0359749  
H216     H      0.177650000000     0.798320000000     0.065210000000     0.0577569  
H217     H      0.208590000000     0.853970000000     0.022250000000     0.0567175  
H218     H      0.356230000000     0.907330000000     0.416140000000     0.0701221  
H219     H      0.376860000000     0.991230000000     0.398150000000     0.050553   
H220     H      0.320460000000     0.002010000000     0.423530000000     0.0686391  
H221     H      0.381120000000     0.901810000000     0.953770000000     0.0722693  
H222     H      0.338020000000     0.930540000000     0.485290000000     0.0336168  
H223     H      0.405190000000     0.034940000000     0.428310000000     0.0472137  
H224     H      0.340950000000     0.002470000000     0.464790000000     0.0540185  
H225     H      0.854050000000     0.756340000000     0.492490000000     0.061825   
H226     H      0.753260000000     0.647050000000     0.486350000000     0.0575711  
H227     H      0.761110000000     0.611540000000     0.436090000000     0.0410827  
H228     H      0.880330000000     0.729970000000     0.471230000000     0.0525772  
H229     H      0.845390000000     0.753780000000     0.430610000000     0.027094   
H230     H      0.777220000000     0.612960000000     0.497340000000     0.0437443  
H231     H      0.818020000000     0.628360000000     0.445900000000     0.0483548  
H232     H      0.963320000000     0.729390000000     0.205150000000     0.0583386  
H233     H      0.918710000000     0.645660000000     0.207230000000     0.0377755  
H234     H      0.855640000000     0.618320000000     0.243890000000     0.0569719  
H235     H      0.944290000000     0.760610000000     0.180550000000     0.0603235  
H236     H      0.883200000000     0.743680000000     0.218130000000     0.0388798  
H237     H      0.868540000000     0.615820000000     0.182820000000     0.0415991  
H238     H      0.828490000000     0.640390000000     0.218550000000     0.0510553  
H239     H      0.662650000000     0.541010000000     0.318400000000     0.0651821  
H240     H      0.643050000000     0.608360000000     0.329820000000     0.0447756  
H241     H      0.707420000000     0.675740000000     0.309420000000     0.0495113  
H242     H      0.647210000000     0.514500000000     0.278420000000     0.0730393  
H243     H      0.701580000000     0.587110000000     0.252210000000     0.0300643  
H244     H      0.624670000000     0.626250000000     0.294290000000     0.053754   
H245     H      0.696520000000     0.655980000000     0.267340000000     0.0463516  
H246     H      0.048830000000     0.765680000000     0.330900000000     0.0642319  
H247     H      0.033520000000     0.833190000000     0.342160000000     0.0492798  
H248     H      0.965840000000     0.810230000000     0.375430000000     0.0491323  
H249     H      0.065600000000     0.744490000000     0.365300000000     0.0651557  
H250     H      0.993960000000     0.714050000000     0.391940000000     0.0325626  
H251     H      0.047430000000     0.858440000000     0.382700000000     0.0516178  
H252     H      0.986920000000     0.790120000000     0.407740000000     0.0454722  
H253     H      0.805400000000     0.012290000000     0.890060000000     0.0668771  
H254     H      0.728440000000     0.010650000000     0.869700000000     0.0474084  
H255     H      0.736430000000     0.041000000000     0.813380000000     0.044009   
H256     H      0.818710000000     0.974480000000     0.868960000000     0.0650616  
H257     H      0.834080000000     0.014330000000     0.817710000000     0.0288521  
H258     H      0.694770000000     0.966370000000     0.840820000000     0.0444615  
H259     H      0.751710000000     0.001440000000     0.797920000000     0.0380839  
H260     H      0.977360000000     0.349430000000     0.752630000000     0.0616634  
H261     H      0.893500000000     0.339290000000     0.748570000000     0.0410349  
H262     H      0.855630000000     0.312750000000     0.802150000000     0.0441009  
H263     H      0.018640000000     0.398650000000     0.774390000000     0.0689092  
H264     H      0.975750000000     0.371110000000     0.825850000000     0.0281575  
H265     H      0.886130000000     0.382250000000     0.768290000000     0.0445064  
H266     H      0.900140000000     0.360540000000     0.822870000000     0.0397209  
H267     H      0.125500000000     0.695220000000     0.709670000000     0.0638978  
H268     H      0.046630000000     0.694240000000     0.727050000000     0.0468684  
H269     H      0.021820000000     0.713970000000     0.676750000000     0.0457334  
H270     H      0.117810000000     0.643630000000     0.691500000000     0.0691282  
H271     H      0.077140000000     0.653650000000     0.644450000000     0.0271333  
H272     H      0.995910000000     0.645320000000     0.713950000000     0.0480563  
H273     H      0.014490000000     0.664370000000     0.655890000000     0.0382411  
H274     H      0.545990000000     0.626800000000     0.915000000000     0.0628885  
H275     H      0.626810000000     0.635810000000     0.918410000000     0.0440674  
H276     H      0.684730000000     0.712130000000     0.927220000000     0.0663168  
H277     H      0.522770000000     0.634620000000     0.952230000000     0.0640065  
H278     H      0.571960000000     0.712550000000     0.954500000000     0.0310431  
H279     H      0.649540000000     0.640010000000     0.959250000000     0.0517842  
H280     H      0.662860000000     0.715550000000     0.966750000000     0.0540946  
H281     H      0.293800000000     0.005770000000     0.614620000000     0.0739204  
H282     H      0.213590000000     0.004450000000     0.604850000000     0.045544   
H283     H      0.171050000000     0.984840000000     0.657100000000     0.0460274  
H284     H      0.335510000000     0.053400000000     0.637580000000     0.0734888  
H285     H      0.287270000000     0.030420000000     0.686290000000     0.0283483  
H286     H      0.210680000000     0.051710000000     0.621280000000     0.0468661  
H287     H      0.217780000000     0.030310000000     0.678100000000     0.04153    
H288     H      0.417990000000     0.389610000000     0.584430000000     0.0581963  
H289     H      0.486340000000     0.375270000000     0.578010000000     0.038496   
H290     H      0.464370000000     0.302110000000     0.553150000000     0.0421893  
H291     H      0.395360000000     0.399540000000     0.047500000000     0.0629551  
H292     H      0.366490000000     0.323780000000     0.527990000000     0.0295057  
H293     H      0.510080000000     0.382050000000     0.537260000000     0.0422253  
H294     H      0.442980000000     0.315520000000     0.517150000000     0.0391167  
H295     H      0.635110000000     0.835200000000     0.773610000000     0.0626263  
H296     H      0.727720000000     0.889390000000     0.776840000000     0.0413662  
H297     H      0.759400000000     0.843820000000     0.798620000000     0.04585    
H298     H      0.614390000000     0.795200000000     0.740250000000     0.0665734  
H299     H      0.651230000000     0.755870000000     0.763290000000     0.0301265  
H300     H      0.758180000000     0.879480000000     0.744780000000     0.0508014  
H301     H      0.733090000000     0.803010000000     0.765930000000     0.0488461  
H302     H      0.666670000000     0.925710000000     0.500600000000     0.0704872  
H303     H      0.749420000000     0.952700000000     0.500640000000     0.0510683  
H304     H      0.767130000000     0.922690000000     0.547700000000     0.0487107  
H305     H      0.628200000000     0.871840000000     0.482420000000     0.065459   
H306     H      0.638470000000     0.830900000000     0.527350000000     0.0321816  
H307     H      0.769190000000     0.916900000000     0.484620000000     0.0465858  
H308     H      0.740460000000     0.866910000000     0.530940000000     0.0402393  
H309     H      0.857590000000     0.813720000000     0.618980000000     0.0647506  
H310     H      0.752960000000     0.716370000000     0.655740000000     0.0632191  
H311     H      0.693450000000     0.729330000000     0.636500000000     0.0545287  
H312     H      0.817540000000     0.806970000000     0.588050000000     0.0499072  
H313     H      0.817090000000     0.854420000000     0.632260000000     0.032389   
H314     H      0.733390000000     0.688750000000     0.616740000000     0.0632775  
H315     H      0.718030000000     0.746200000000     0.596280000000     0.045974   
H316     H      0.581450000000     0.932020000000     0.620010000000     0.0725412  
H317     H      0.653740000000     0.001400000000     0.634650000000     0.0499713  
H318     H      0.644630000000     0.033640000000     0.684490000000     0.042364   
H319     H      0.566680000000     0.878670000000     0.638390000000     0.0762397  
H320     H      0.551750000000     0.901000000000     0.691470000000     0.0328537  
H321     H      0.690000000000     0.997800000000     0.665060000000     0.0499373  
H322     H      0.640300000000     0.988550000000     0.709500000000     0.0373296  
H323     H      0.991480000000     0.599650000000     0.853250000000     0.0783865  
H324     H      0.071500000000     0.622080000000     0.850550000000     0.0432858  
H325     H      0.084290000000     0.588640000000     0.896980000000     0.0467747  
H326     H      0.950060000000     0.550720000000     0.831250000000     0.0716887  
H327     H      0.954730000000     0.500220000000     0.871470000000     0.0310355  
H328     H      0.088380000000     0.584790000000     0.832850000000     0.0481617  
H329     H      0.060720000000     0.534470000000     0.878000000000     0.0396218  
H330     H      0.055470000000     0.523610000000     0.618830000000     0.0665939  
H331     H      0.968360000000     0.518890000000     0.620170000000     0.0465937  
H332     H      0.927910000000     0.468560000000     0.579150000000     0.114553   
H333     H      0.056100000000     0.480960000000     0.644600000000     0.0677163  
H334     H      0.001960000000     0.421300000000     0.609010000000     0.0424531  
H335     H      0.927100000000     0.469650000000     0.641360000000     0.0475019  
H336     H      0.925060000000     0.419410000000     0.600080000000     0.0560687  
H337     H      0.925720000000     0.571800000000     0.594960000000     0.0565074  
H338     H      0.994400000000     0.643770000000     0.575940000000     0.0424313  
H339     H      0.015950000000     0.639400000000     0.019470000000     0.0475937  
H340     H      0.871250000000     0.558020000000     0.580380000000     0.0622106  
H341     H      0.885380000000     0.541410000000     0.525670000000     0.0344632  
H342     H      0.987040000000     0.683090000000     0.550770000000     0.0466101  
H343     H      0.964800000000     0.633350000000     0.503470000000     0.0462747  
H344     H      0.260400000000     0.104990000000     0.995050000000     0.064923   
H345     H      0.359060000000     0.095870000000     0.986480000000     0.0562778  
H346     H      0.403820000000     0.146080000000     0.940790000000     0.0366639  
H347     H      0.293150000000     0.159950000000     0.977710000000     0.0528486  
H348     H      0.266430000000     0.108980000000     0.932150000000     0.0270389  
H349     H      0.399800000000     0.150040000000     0.002180000000     0.0429343  
H350     H      0.391500000000     0.188730000000     0.954080000000     0.0429997  
H351     H      0.316140000000     0.252800000000     0.710190000000     0.0614621  
H352     H      0.397860000000     0.282960000000     0.708820000000     0.039348   
H353     H      0.419200000000     0.242600000000     0.746010000000     0.0459192  
H354     H      0.279020000000     0.204260000000     0.685710000000     0.0621481  
H355     H      0.290580000000     0.153710000000     0.721160000000     0.0303657  
H356     H      0.421180000000     0.256260000000     0.683850000000     0.0404691  
H357     H      0.393910000000     0.192930000000     0.720930000000     0.0389776  
H358     H      0.374430000000     0.050770000000     0.754750000000     0.0683463  
H359     H      0.448240000000     0.133300000000     0.757410000000     0.0405915  
H360     H      0.469590000000     0.158240000000     0.815570000000     0.0449766  
H361     H      0.380950000000     0.003940000000     0.767220000000     0.0783398  
H362     H      0.399730000000     0.033460000000     0.823540000000     0.0295904  
H363     H      0.499900000000     0.135850000000     0.769120000000     0.043021   
H364     H      0.469500000000     0.106940000000     0.824940000000     0.0397748  
H365     H      0.075040000000     0.458690000000     0.899340000000     0.060564   
H366     H      0.009440000000     0.381590000000     0.911700000000     0.0460206  
H367     H      0.032730000000     0.329090000000     0.927770000000     0.0507202  
H368     H      0.107130000000     0.495720000000     0.932160000000     0.0620217  
H369     H      0.142390000000     0.453990000000     0.945940000000     0.0345475  
H370     H      0.992650000000     0.366890000000     0.454290000000     0.0453426  
H371     H      0.055090000000     0.356900000000     0.966330000000     0.0464373  
H372     H      0.278610000000     0.306640000000     0.833760000000     0.0698051  
H373     H      0.207430000000     0.223900000000     0.837780000000     0.0521622  
H374     H      0.221630000000     0.170950000000     0.869240000000     0.0509716  
H375     H      0.297460000000     0.338460000000     0.871400000000     0.0665663  
H376     H      0.321000000000     0.289510000000     0.894890000000     0.0292261  
H377     H      0.177660000000     0.208420000000     0.876540000000     0.052354   
H378     H      0.240780000000     0.208250000000     0.904100000000     0.0461744  
H379     H      0.548390000000     0.484860000000     0.882620000000     0.0612411  
H380     H      0.484100000000     0.518730000000     0.881370000000     0.0468627  
H381     H      0.423480000000     0.466350000000     0.845790000000     0.0589537  
H382     H      0.529760000000     0.437790000000     0.910460000000     0.0630063  
H383     H      0.464300000000     0.391280000000     0.876370000000     0.0376511  
H384     H      0.436330000000     0.484820000000     0.906910000000     0.0471722  
H385     H      0.412120000000     0.419700000000     0.872190000000     0.0523514  
H386     H      0.592200000000     0.517220000000     0.656820000000     0.0597161  
H387     H      0.561380000000     0.604240000000     0.653540000000     0.0597859  
H388     H      0.517350000000     0.590560000000     0.603150000000     0.0432162  
H389     H      0.540350000000     0.483150000000     0.635800000000     0.0478097  
H390     H      0.596670000000     0.527960000000     0.595420000000     0.0280587  
H391     H      0.503630000000     0.569750000000     0.664210000000     0.0468916  
H392     H      0.484520000000     0.531470000000     0.611590000000     0.0418811  
H393     H      0.950800000000     0.220080000000     0.940210000000     0.0587878  
H394     H      0.916970000000     0.271170000000     0.943500000000     0.0410185  
H395     H      0.847430000000     0.238050000000     0.911380000000     0.0404063  
H396     H      0.930940000000     0.172600000000     0.967950000000     0.0644983  
H397     H      0.857090000000     0.137040000000     0.940030000000     0.034379   
H398     H      0.870850000000     0.256870000000     0.971370000000     0.0443964  
H399     H      0.821230000000     0.189780000000     0.938560000000     0.0425895  
H400     H      0.898310000000     0.177980000000     0.683040000000     0.0614653  
H401     H      0.838440000000     0.210570000000     0.683800000000     0.0450212  
H402     H      0.772260000000     0.155180000000     0.653940000000     0.0390113  
H403     H      0.888220000000     0.136420000000     0.714430000000     0.0659277  
H404     H      0.815540000000     0.083180000000     0.688820000000     0.0265376  
H405     H      0.793500000000     0.183600000000     0.713010000000     0.0414543  
H406     H      0.762280000000     0.112250000000     0.683820000000     0.0356268  
H407     H      0.160030000000     0.385570000000     0.770920000000     0.0725969  
H408     H      0.086780000000     0.310290000000     0.776550000000     0.0549103  
H409     H      0.099420000000     0.251590000000     0.753720000000     0.0380483  
H410     H      0.201460000000     0.403070000000     0.803300000000     0.0824615  
H411     H      0.211340000000     0.337280000000     0.789590000000     0.0279286  
H412     H      0.080340000000     0.272710000000     0.809880000000     0.0552589  
H413     H      0.138570000000     0.259530000000     0.786430000000     0.0445938  
H414     H      0.240960000000     0.293560000000     0.535070000000     0.0721322  
H415     H      0.271580000000     0.377910000000     0.536990000000     0.0455657  
H416     H      0.229610000000     0.399620000000     0.501080000000     0.0464713  
H417     H      0.192050000000     0.256650000000     0.559030000000     0.065533   
H418     H      0.143640000000     0.271370000000     0.523490000000     0.0296453  
H419     H      0.244130000000     0.400130000000     0.562210000000     0.0466125  
H420     H      0.179990000000     0.369630000000     0.525530000000     0.0435316  
H421     H      0.009570000000     0.279940000000     0.652880000000     0.0607532  
H422     H      0.002690000000     0.200110000000     0.647260000000     0.0477789  
H423     H      0.983170000000     0.170720000000     0.590590000000     0.0540002  
H424     H      0.057850000000     0.327550000000     0.635100000000     0.0699417  
H425     H      0.033940000000     0.297140000000     0.579420000000     0.0317574  
H426     H      0.047950000000     0.197060000000     0.627420000000     0.0477371  
H427     H      0.030740000000     0.220380000000     0.574310000000     0.0426384  
H428     H      0.328240000000     0.440880000000     0.705010000000     0.102133   
H429     H      0.357050000000     0.381950000000     0.663340000000     0.0492934  
H430     H      0.398870000000     0.364080000000     0.701440000000     0.043896   
H431     H      0.286050000000     0.405090000000     0.728020000000     0.240366   
H432     H      0.327130000000     0.379880000000     0.760890000000     0.0357743  
H433     H      0.321420000000     0.324270000000     0.674740000000     0.0548925  
H434     H      0.352520000000     0.336630000000     0.729680000000     0.0487877  
H435     H      0.622930000000     0.045680000000     0.831800000000     0.0575736  
H436     H      0.570030000000     0.962920000000     0.831370000000     0.0378677  
H437     H      0.527550000000     0.945010000000     0.880300000000     0.046228   
H438     H      0.606760000000     0.083630000000     0.813900000000     0.0595581  
H439     H      0.557450000000     0.073940000000     0.859400000000     0.0296251  
H440     H      0.513610000000     0.940970000000     0.817090000000     0.0474218  
H441     H      0.492180000000     0.965130000000     0.864950000000     0.0423072  
H442     H      0.434700000000     0.949930000000     0.570010000000     0.0686619  
H443     H      0.453170000000     0.061940000000     0.578080000000     0.056479   
H444     H      0.499140000000     0.095180000000     0.627260000000     0.0377084  
H445     H      0.488220000000     0.970530000000     0.588960000000     0.0641681  
H446     H      0.434470000000     0.952650000000     0.632440000000     0.0478881  
H447     H      0.510430000000     0.092970000000     0.565370000000     0.0405993  
H448     H      0.537280000000     0.076540000000     0.615440000000     0.0411242  
H449     H      0.646880000000     0.033150000000     0.550950000000     0.0639906  
H450     H      0.662460000000     0.118830000000     0.547350000000     0.0395275  
H451     H      0.734550000000     0.170670000000     0.521340000000     0.0436794  
H452     H      0.638290000000     0.004210000000     0.012290000000     0.0682392  
H453     H      0.714000000000     0.052420000000     0.494630000000     0.0298539  
H454     H      0.655210000000     0.137340000000     0.507330000000     0.0458337  
H455     H      0.720310000000     0.135170000000     0.485610000000     0.0438688  
H456     H      0.182190000000     0.815230000000     0.795590000000     0.0630643  
H457     H      0.130580000000     0.854250000000     0.798530000000     0.0421885  
H458     H      0.178480000000     0.935430000000     0.812240000000     0.0477095  
H459     H      0.216510000000     0.826580000000     0.759410000000     0.0696199  
H460     H      0.259430000000     0.907330000000     0.774220000000     0.0435357  
H461     H      0.134100000000     0.889090000000     0.763880000000     0.0475396  
H462     H      0.213550000000     0.943360000000     0.776890000000     0.0521918  
H463     H      0.075600000000     0.807760000000     0.546170000000     0.0586521  
H464     H      0.123530000000     0.770200000000     0.545880000000     0.0436916  
H465     H      0.178140000000     0.799880000000     0.502810000000     0.0594502  
H466     H      0.097480000000     0.862360000000     0.565380000000     0.0600079  
H467     H      0.151830000000     0.899710000000     0.522230000000     0.0359564  
H468     H      0.177650000000     0.798320000000     0.565210000000     0.0577547  
H469     H      0.208590000000     0.853970000000     0.522240000000     0.0567055  
H470     H      0.356230000000     0.907330000000     0.916140000000     0.0701401  
H471     H      0.376860000000     0.991230000000     0.898150000000     0.0505502  
H472     H      0.320470000000     0.002010000000     0.923530000000     0.0686397  
H473     H      0.381120000000     0.901800000000     0.453770000000     0.0722389  
H474     H      0.338020000000     0.930540000000     0.985290000000     0.0336046  
H475     H      0.405190000000     0.034940000000     0.928310000000     0.0472131  
H476     H      0.340950000000     0.002470000000     0.964790000000     0.0540316  
H477     H      0.854050000000     0.756340000000     0.992490000000     0.0617615  
H478     H      0.753260000000     0.647050000000     0.986350000000     0.0575552  
H479     H      0.761110000000     0.611540000000     0.936090000000     0.0410803  
H480     H      0.880330000000     0.729970000000     0.971230000000     0.0525495  
H481     H      0.845390000000     0.753780000000     0.930610000000     0.027104   
H482     H      0.777220000000     0.612960000000     0.997350000000     0.0437341  
H483     H      0.818020000000     0.628360000000     0.945900000000     0.0483539  
H484     H      0.963320000000     0.729390000000     0.705140000000     0.0583424  
H485     H      0.918710000000     0.645660000000     0.707230000000     0.0377734  
H486     H      0.855640000000     0.618320000000     0.743890000000     0.0569699  
H487     H      0.944290000000     0.760610000000     0.680550000000     0.0603243  
H488     H      0.883200000000     0.743680000000     0.718130000000     0.0388648  
H489     H      0.868540000000     0.615820000000     0.682820000000     0.0415979  
H490     H      0.828490000000     0.640390000000     0.718550000000     0.0510586  
H491     H      0.662650000000     0.541010000000     0.818400000000     0.0651743  
H492     H      0.643050000000     0.608360000000     0.829820000000     0.0447407  
H493     H      0.707420000000     0.675740000000     0.809420000000     0.0495187  
H494     H      0.647210000000     0.514490000000     0.778430000000     0.0730357  
H495     H      0.701580000000     0.587110000000     0.752210000000     0.0300686  
H496     H      0.624660000000     0.626250000000     0.794300000000     0.0537195  
H497     H      0.696520000000     0.655980000000     0.767340000000     0.0463625  
H498     H      0.048830000000     0.765680000000     0.830900000000     0.0642254  
H499     H      0.033520000000     0.833190000000     0.842150000000     0.0492648  
H500     H      0.965840000000     0.810230000000     0.875430000000     0.0491403  
H501     H      0.065600000000     0.744490000000     0.865300000000     0.0651529  
H502     H      0.993960000000     0.714040000000     0.891940000000     0.032563   
H503     H      0.047430000000     0.858440000000     0.882700000000     0.051617   
H504     H      0.986920000000     0.790120000000     0.907740000000     0.0454795  
N1       N      0.802020000000     0.052530000000     0.327580000000    -0.184202   
N2       N      0.753870000000     0.967110000000     0.359070000000    -0.174838   
N3       N      0.919440000000     0.314200000000     0.305260000000    -0.187539   
N4       N      0.953910000000     0.393490000000     0.267330000000    -0.174144   
N5       N      0.082740000000     0.714070000000     0.163210000000    -0.188646   
N6       N      0.057310000000     0.642990000000     0.207490000000    -0.17417    
N7       N      0.626240000000     0.718960000000     0.425820000000    -0.180831   
N8       N      0.583740000000     0.632060000000     0.456960000000    -0.173376   
N9       N      0.229610000000     0.977330000000     0.163840000000    -0.186801   
N10      N      0.275310000000     0.055100000000     0.124910000000    -0.173216   
N11      N      0.402540000000     0.303640000000     0.059580000000    -0.186242   
N12      N      0.455830000000     0.396000000000     0.042010000000    -0.175364   
N13      N      0.687120000000     0.803100000000     0.300940000000    -0.186455   
N14      N      0.685890000000     0.842340000000     0.240540000000    -0.173452   
N15      N      0.695080000000     0.885760000000     0.050090000000    -0.18156    
N16      N      0.698110000000     0.891670000000     0.980660000000    -0.172433   
N17      N      0.751480000000     0.795220000000     0.133500000000    -0.186296   
N18      N      0.798500000000     0.748150000000     0.116260000000    -0.166983   
N19      N      0.581240000000     0.971410000000     0.182550000000    -0.18582    
N20      N      0.630440000000     0.935390000000     0.152670000000    -0.170431   
N21      N      0.012330000000     0.549160000000     0.397390000000    -0.18643    
N22      N      0.018190000000     0.563760000000     0.329160000000    -0.172677   
N23      N      0.988250000000     0.462330000000     0.077990000000    -0.180646   
N24      N      0.995490000000     0.484520000000     0.145760000000    -0.174361   
N25      N      0.956480000000     0.574780000000     0.027410000000    -0.186405   
N26      N      0.926570000000     0.622850000000     0.065610000000    -0.174766   
N27      N      0.336830000000     0.131310000000     0.432070000000    -0.187211   
N28      N      0.331130000000     0.135700000000     0.502330000000    -0.169211   
N29      N      0.347010000000     0.202830000000     0.248040000000    -0.184122   
N30      N      0.349450000000     0.226810000000     0.181860000000    -0.175743   
N31      N      0.404420000000     0.096560000000     0.314680000000    -0.186998   
N32      N      0.441820000000     0.068890000000     0.264380000000    -0.17277    
N33      N      0.096610000000     0.390330000000     0.425170000000    -0.182438   
N34      N      0.048860000000     0.432830000000     0.446040000000    -0.17362    
N35      N      0.285680000000     0.232730000000     0.363580000000    -0.182829   
N36      N      0.234600000000     0.275920000000     0.373590000000    -0.172206   
N37      N      0.471710000000     0.443550000000     0.344240000000    -0.180917   
N38      N      0.491040000000     0.471300000000     0.410650000000    -0.173527   
N39      N      0.550100000000     0.552820000000     0.093840000000    -0.184826   
N40      N      0.542370000000     0.536180000000     0.163980000000    -0.167379   
N41      N      0.871570000000     0.190940000000     0.407660000000    -0.186823   
N42      N      0.899650000000     0.213390000000     0.472890000000    -0.174586   
N43      N      0.817730000000     0.129050000000     0.152560000000    -0.187081   
N44      N      0.845500000000     0.165810000000     0.215940000000    -0.17417    
N45      N      0.163290000000     0.312700000000     0.251510000000    -0.19281    
N46      N      0.141200000000     0.338060000000     0.310310000000    -0.166926   
N47      N      0.194490000000     0.326810000000     0.996810000000    -0.185407   
N48      N      0.216590000000     0.328010000000     0.063910000000    -0.171387   
N49      N      0.980310000000     0.232980000000     0.092950000000    -0.184953   
N50      N      0.056840000000     0.263880000000     0.133480000000    -0.174641   
N51      N      0.383590000000     0.408020000000     0.230060000000    -0.190201   
N52      N      0.303070000000     0.371450000000     0.193950000000    -0.147573   
N53      N      0.555140000000     0.016860000000     0.382200000000    -0.184134   
N54      N      0.557180000000     0.012850000000     0.312710000000    -0.174291   
N55      N      0.475220000000     0.025130000000     0.134670000000    -0.182718   
N56      N      0.480180000000     0.020530000000     0.064210000000    -0.167835   
N57      N      0.732760000000     0.106750000000     0.028000000000    -0.185242   
N58      N      0.640790000000     0.068300000000     0.010520000000    -0.172791   
N59      N      0.218740000000     0.903050000000     0.314800000000    -0.18067    
N60      N      0.171620000000     0.853890000000     0.259490000000    -0.17382    
N61      N      0.148560000000     0.842350000000     0.999260000000    -0.18322    
N62      N      0.138810000000     0.831900000000     0.068360000000    -0.173993   
N63      N      0.305890000000     0.937470000000     0.443030000000    -0.183753   
N64      N      0.398290000000     0.969940000000     0.439960000000    -0.173326   
N65      N      0.807960000000     0.681200000000     0.428340000000    -0.185972   
N66      N      0.822450000000     0.684710000000     0.498220000000    -0.168263   
N67      N      0.883640000000     0.690820000000     0.245380000000    -0.182329   
N68      N      0.903700000000     0.688250000000     0.178880000000    -0.177231   
N69      N      0.723060000000     0.623740000000     0.296950000000    -0.187011   
N70      N      0.630070000000     0.566450000000     0.288010000000    -0.171787   
N71      N      0.967930000000     0.749040000000     0.364940000000    -0.183364   
N72      N      0.061760000000     0.804750000000     0.373800000000    -0.172914   
N73      N      0.802020000000     0.052530000000     0.827580000000    -0.1842     
N74      N      0.753870000000     0.967110000000     0.859070000000    -0.174827   
N75      N      0.919440000000     0.314200000000     0.805260000000    -0.187485   
N76      N      0.953910000000     0.393490000000     0.767330000000    -0.174179   
N77      N      0.082740000000     0.714070000000     0.663210000000    -0.188591   
N78      N      0.057310000000     0.642990000000     0.707490000000    -0.174255   
N79      N      0.626240000000     0.718960000000     0.925820000000    -0.180824   
N80      N      0.583740000000     0.632060000000     0.956960000000    -0.173327   
N81      N      0.229610000000     0.977330000000     0.663840000000    -0.186794   
N82      N      0.275310000000     0.055100000000     0.624910000000    -0.17322    
N83      N      0.402540000000     0.303640000000     0.559570000000    -0.186221   
N84      N      0.455830000000     0.396000000000     0.542010000000    -0.175369   
N85      N      0.687120000000     0.803100000000     0.800940000000    -0.186448   
N86      N      0.685890000000     0.842340000000     0.740540000000    -0.173441   
N87      N      0.695080000000     0.885760000000     0.550090000000    -0.18152    
N88      N      0.698110000000     0.891670000000     0.480660000000    -0.172472   
N89      N      0.751480000000     0.795220000000     0.633500000000    -0.186296   
N90      N      0.798500000000     0.748150000000     0.616260000000    -0.166942   
N91      N      0.581240000000     0.971410000000     0.682550000000    -0.185821   
N92      N      0.630440000000     0.935390000000     0.652670000000    -0.170429   
N93      N      0.012330000000     0.549160000000     0.897390000000    -0.186454   
N94      N      0.018190000000     0.563760000000     0.829160000000    -0.172693   
N95      N      0.988250000000     0.462330000000     0.577990000000    -0.18064    
N96      N      0.995490000000     0.484520000000     0.645760000000    -0.174446   
N97      N      0.956480000000     0.574780000000     0.527400000000    -0.186438   
N98      N      0.926570000000     0.622850000000     0.565610000000    -0.174711   
N99      N      0.336830000000     0.131310000000     0.932070000000    -0.187231   
N100     N      0.331130000000     0.135700000000     0.002330000000    -0.169152   
N101     N      0.347010000000     0.202830000000     0.748040000000    -0.18414    
N102     N      0.349450000000     0.226810000000     0.681860000000    -0.175747   
N103     N      0.404420000000     0.096560000000     0.814680000000    -0.187008   
N104     N      0.441820000000     0.068890000000     0.764380000000    -0.172765   
N105     N      0.096610000000     0.390330000000     0.925170000000    -0.182339   
N106     N      0.048860000000     0.432830000000     0.946040000000    -0.173636   
N107     N      0.285680000000     0.232730000000     0.863580000000    -0.182822   
N108     N      0.234600000000     0.275920000000     0.873590000000    -0.172211   
N109     N      0.471710000000     0.443550000000     0.844250000000    -0.180862   
N110     N      0.491040000000     0.471300000000     0.910650000000    -0.173556   
N111     N      0.550100000000     0.552820000000     0.593840000000    -0.184856   
N112     N      0.542370000000     0.536180000000     0.663980000000    -0.167356   
N113     N      0.871570000000     0.190940000000     0.907660000000    -0.186773   
N114     N      0.899650000000     0.213390000000     0.972890000000    -0.174672   
N115     N      0.817730000000     0.129050000000     0.652560000000    -0.18705    
N116     N      0.845500000000     0.165810000000     0.715940000000    -0.174245   
N117     N      0.163290000000     0.312700000000     0.751510000000    -0.192813   
N118     N      0.141200000000     0.338060000000     0.810310000000    -0.166923   
N119     N      0.194490000000     0.326810000000     0.496810000000    -0.185384   
N120     N      0.216590000000     0.328010000000     0.563920000000    -0.171473   
N121     N      0.980310000000     0.232980000000     0.592950000000    -0.184947   
N122     N      0.056840000000     0.263880000000     0.633480000000    -0.17464    
N123     N      0.383590000000     0.408020000000     0.730060000000    -0.190167   
N124     N      0.303070000000     0.371450000000     0.693950000000    -0.147564   
N125     N      0.555140000000     0.016860000000     0.882210000000    -0.184175   
N126     N      0.557170000000     0.012850000000     0.812710000000    -0.174325   
N127     N      0.475220000000     0.025130000000     0.634670000000    -0.182719   
N128     N      0.480180000000     0.020530000000     0.564210000000    -0.167826   
N129     N      0.732760000000     0.106750000000     0.528000000000    -0.185232   
N130     N      0.640780000000     0.068300000000     0.510520000000    -0.172893   
N131     N      0.218740000000     0.903050000000     0.814800000000    -0.180668   
N132     N      0.171620000000     0.853890000000     0.759490000000    -0.173834   
N133     N      0.148560000000     0.842350000000     0.499260000000    -0.183172   
N134     N      0.138810000000     0.831900000000     0.568360000000    -0.173981   
N135     N      0.305890000000     0.937470000000     0.943040000000    -0.183704   
N136     N      0.398290000000     0.969940000000     0.939960000000    -0.173275   
N137     N      0.807960000000     0.681200000000     0.928340000000    -0.185972   
N138     N      0.822460000000     0.684710000000     0.998220000000    -0.16836    
N139     N      0.883640000000     0.690820000000     0.745380000000    -0.182329   
N140     N      0.903700000000     0.688250000000     0.678880000000    -0.177226   
N141     N      0.723060000000     0.623740000000     0.796950000000    -0.187008   
N142     N      0.630070000000     0.566450000000     0.788010000000    -0.171763   
N143     N      0.967930000000     0.749040000000     0.864940000000    -0.183309   
N144     N      0.061760000000     0.804750000000     0.873800000000    -0.172911   
O1       O      0.861470000000     0.655620000000     0.295460000000    -0.550415   
O2       O      0.820290000000     0.648580000000     0.383190000000    -0.560114   
O3       O      0.781520000000     0.622360000000     0.323270000000    -0.540063   
O4       O      0.901520000000     0.683190000000     0.354550000000    -0.534814   
O5       O      0.904470000000     0.749330000000     0.347990000000    -0.547882   
O6       O      0.783940000000     0.688280000000     0.317060000000    -0.54706    
O7       O      0.824580000000     0.715600000000     0.377270000000    -0.546771   
O8       O      0.865340000000     0.722320000000     0.288700000000    -0.530493   
O9       O      0.168260000000     0.826040000000     0.449050000000    -0.549137   
O10      O      0.208090000000     0.858550000000     0.360350000000    -0.540782   
O11      O      0.247360000000     0.874370000000     0.420170000000    -0.537669   
O12      O      0.127910000000     0.808940000000     0.389150000000    -0.559029   
O13      O      0.120850000000     0.870030000000     0.394820000000    -0.546976   
O14      O      0.242180000000     0.936610000000     0.424500000000    -0.530918   
O15      O      0.200110000000     0.919190000000     0.365190000000    -0.554079   
O16      O      0.161800000000     0.887620000000     0.453930000000    -0.537089   
O17      O      0.494540000000     0.985150000000     0.021600000000    -0.549738   
O18      O      0.532370000000     0.983820000000     0.433400000000    -0.553883   
O19      O      0.573730000000     0.008300000000     0.993200000000    -0.550861   
O20      O      0.454550000000     0.961150000000     0.462330000000    -0.558214   
O21      O      0.467270000000     0.030910000000     0.453000000000    -0.550262   
O22      O      0.585600000000     0.078290000000     0.986860000000    -0.547984   
O23      O      0.547590000000     0.054900000000     0.426400000000    -0.53663    
O24      O      0.505760000000     0.054700000000     0.013590000000    -0.551944   
O25      O      0.195840000000     0.288660000000     0.112730000000    -0.551295   
O26      O      0.163480000000     0.278150000000     0.203480000000    -0.54833    
O27      O      0.118580000000     0.257420000000     0.145820000000    -0.552834   
O28      O      0.241540000000     0.310580000000     0.170820000000    -0.534416   
O29      O      0.247160000000     0.378630000000     0.169830000000    -0.546452   
O30      O      0.125590000000     0.325910000000     0.144130000000    -0.557731   
O31      O      0.171250000000     0.347130000000     0.201740000000    -0.543854   
O32      O      0.203940000000     0.357650000000     0.111070000000    -0.554009   
O33      O      0.880270000000     0.160580000000     0.013950000000    -0.555921   
O34      O      0.838570000000     0.118490000000     0.100850000000    -0.531641   
O35      O      0.798640000000     0.108080000000     0.041340000000    -0.535055   
O36      O      0.918440000000     0.169830000000     0.072920000000    -0.555412   
O37      O      0.913200000000     0.231080000000     0.082220000000    -0.528422   
O38      O      0.792940000000     0.169210000000     0.050800000000    -0.55722    
O39      O      0.831870000000     0.179130000000     0.110260000000    -0.552932   
O40      O      0.873270000000     0.221190000000     0.023100000000    -0.550708   
O41      O      0.533770000000     0.486030000000     0.205170000000    -0.551443   
O42      O      0.499520000000     0.440880000000     0.292890000000    -0.52607    
O43      O      0.456680000000     0.424440000000     0.234440000000    -0.55419    
O44      O      0.575810000000     0.501290000000     0.263850000000    -0.552445   
O45      O      0.560110000000     0.555830000000     0.274900000000    -0.54451    
O46      O      0.440390000000     0.478490000000     0.245340000000    -0.53342    
O47      O      0.482320000000     0.494440000000     0.303340000000    -0.545846   
O48      O      0.517020000000     0.539990000000     0.215900000000    -0.548154   
O49      O      0.184190000000     0.369100000000     0.356650000000    -0.550309   
O50      O      0.210260000000     0.363660000000     0.447080000000    -0.560118   
O51      O      0.231130000000     0.338600000000     0.389410000000    -0.556572   
O52      O      0.163440000000     0.393610000000     0.413690000000    -0.545306   
O53      O      0.101890000000     0.326120000000     0.418580000000    -0.548611   
O54      O      0.169360000000     0.270860000000     0.392610000000    -0.546843   
O55      O      0.149950000000     0.294870000000     0.450970000000    -0.534115   
O56      O      0.121930000000     0.301870000000     0.360720000000    -0.545936   
O57      O      0.375650000000     0.176490000000     0.388310000000    -0.559237   
O58      O      0.380180000000     0.212100000000     0.298760000000    -0.550365   
O59      O      0.349430000000     0.227860000000     0.355450000000    -0.535624   
O60      O      0.406150000000     0.161280000000     0.331710000000    -0.564795   
O61      O      0.339610000000     0.100300000000     0.322900000000    -0.52835    
O62      O      0.282540000000     0.167180000000     0.346500000000    -0.548696   
O63      O      0.312600000000     0.151830000000     0.290030000000    -0.539636   
O64      O      0.307840000000     0.116460000000     0.379600000000    -0.546685   
O65      O      0.042040000000     0.553890000000     0.448970000000    -0.557365   
O66      O      0.032710000000     0.507020000000     0.035790000000    -0.534853   
O67      O      0.059410000000     0.493980000000     0.475690000000    -0.555566   
O68      O      0.015530000000     0.568170000000     0.008490000000    -0.555988   
O69      O      0.945550000000     0.513330000000     0.997690000000    -0.539945   
O70      O      0.989410000000     0.438320000000     0.466050000000    -0.554836   
O71      O      0.961960000000     0.453600000000     0.025300000000    -0.549763   
O72      O      0.971770000000     0.499350000000     0.438570000000    -0.547766   
O73      O      0.726910000000     0.905490000000     0.101790000000    -0.544618   
O74      O      0.721240000000     0.885650000000     0.194870000000    -0.549652   
O75      O      0.753060000000     0.861940000000     0.143370000000    -0.553705   
O76      O      0.694670000000     0.930430000000     0.153610000000    -0.54746    
O77      O      0.628300000000     0.867630000000     0.147770000000    -0.549611   
O78      O      0.686810000000     0.799370000000     0.136220000000    -0.552577   
O79      O      0.654500000000     0.823310000000     0.188720000000    -0.552597   
O80      O      0.659400000000     0.843940000000     0.096070000000    -0.541659   
O81      O      0.911830000000     0.721480000000     0.128300000000    -0.558054   
O82      O      0.873980000000     0.717740000000     0.039720000000    -0.556208   
O83      O      0.861650000000     0.749370000000     0.096700000000    -0.553755   
O84      O      0.924040000000     0.688580000000     0.071190000000    -0.552909   
O85      O      0.862120000000     0.622310000000     0.080200000000    -0.560441   
O86      O      0.800930000000     0.682950000000     0.107920000000    -0.550747   
O87      O      0.812010000000     0.651690000000     0.049540000000    -0.551189   
O88      O      0.851970000000     0.653590000000     0.137620000000    -0.554784   
O89      O      0.521300000000     0.058750000000     0.179310000000    -0.554399   
O90      O      0.562340000000     0.051880000000     0.265200000000    -0.556701   
O91      O      0.576370000000     0.031470000000     0.203510000000    -0.553819   
O92      O      0.506950000000     0.078610000000     0.241120000000    -0.555006   
O93      O      0.448850000000     0.008770000000     0.246650000000    -0.546044   
O94      O      0.518020000000     0.961800000000     0.208930000000    -0.540126   
O95      O      0.504980000000     0.981600000000     0.270840000000    -0.548363   
O96      O      0.463380000000     0.988720000000     0.184800000000    -0.534742   
O97      O      0.302670000000     0.157080000000     0.045470000000    -0.555348   
O98      O      0.310640000000     0.199440000000     0.133380000000    -0.554425   
O99      O      0.337400000000     0.238730000000     0.073740000000    -0.538677   
O100     O      0.276040000000     0.118150000000     0.104890000000    -0.561315   
O101     O      0.341300000000     0.120400000000     0.112730000000    -0.548345   
O102     O      0.402580000000     0.240330000000     0.078840000000    -0.557346   
O103     O      0.377450000000     0.204290000000     0.139100000000    -0.556037   
O104     O      0.367280000000     0.157560000000     0.052380000000    -0.555992   
O105     O      0.507280000000     0.541450000000     0.047160000000    -0.550163   
O106     O      0.475270000000     0.495790000000     0.459250000000    -0.550827   
O107     O      0.458590000000     0.459550000000     0.020840000000    -0.558657   
O108     O      0.523230000000     0.577530000000     0.485280000000    -0.557277   
O109     O      0.584720000000     0.571550000000     0.481510000000    -0.545555   
O110     O      0.519830000000     0.452990000000     0.018040000000    -0.552736   
O111     O      0.535880000000     0.488060000000     0.456560000000    -0.552782   
O112     O      0.568780000000     0.535410000000     0.043520000000    -0.549429   
O113     O      0.132310000000     0.851250000000     0.212870000000    -0.551655   
O114     O      0.119490000000     0.846330000000     0.119310000000    -0.554929   
O115     O      0.089790000000     0.784440000000     0.167540000000    -0.55448    
O116     O      0.161410000000     0.912200000000     0.164520000000    -0.559146   
O117     O      0.223000000000     0.906750000000     0.160050000000    -0.530698   
O118     O      0.151350000000     0.779000000000     0.162700000000    -0.541501   
O119     O      0.180530000000     0.839590000000     0.114610000000    -0.548912   
O120     O      0.193100000000     0.844140000000     0.207960000000    -0.551668   
O121     O      0.976460000000     0.533330000000     0.282370000000    -0.558701   
O122     O      0.966220000000     0.496910000000     0.192930000000    -0.56128    
O123     O      0.946260000000     0.453830000000     0.251380000000    -0.557015   
O124     O      0.996510000000     0.576110000000     0.224180000000    -0.554331   
O125     O      0.064510000000     0.583000000000     0.224330000000    -0.557086   
O126     O      0.014860000000     0.462630000000     0.255010000000    -0.553726   
O127     O      0.033740000000     0.502810000000     0.195280000000    -0.550915   
O128     O      0.045970000000     0.544190000000     0.284230000000    -0.550657   
O129     O      0.820420000000     0.174590000000     0.266620000000    -0.55258    
O130     O      0.833700000000     0.187900000000     0.360220000000    -0.548719   
O131     O      0.855850000000     0.244610000000     0.308950000000    -0.557461   
O132     O      0.797980000000     0.117000000000     0.318570000000    -0.549119   
O133     O      0.864230000000     0.120570000000     0.314980000000    -0.536737   
O134     O      0.921850000000     0.247820000000     0.305330000000    -0.536161   
O135     O      0.899420000000     0.190030000000     0.356430000000    -0.533815   
O136     O      0.886080000000     0.176450000000     0.263370000000    -0.557048   
O137     O      0.660830000000     0.864380000000     0.431440000000    -0.550565   
O138     O      0.653910000000     0.818580000000     0.344470000000    -0.531906   
O139     O      0.626870000000     0.782050000000     0.404960000000    -0.529823   
O140     O      0.688100000000     0.901550000000     0.370830000000    -0.5534     
O141     O      0.753490000000     0.904550000000     0.379880000000    -0.55847    
O142     O      0.691920000000     0.783830000000     0.411650000000    -0.545164   
O143     O      0.720520000000     0.823590000000     0.351840000000    -0.555591   
O144     O      0.726220000000     0.866830000000     0.439330000000    -0.551609   
O145     O      0.861470000000     0.655620000000     0.795460000000    -0.550502   
O146     O      0.820290000000     0.648580000000     0.883190000000    -0.560009   
O147     O      0.781520000000     0.622360000000     0.823270000000    -0.540064   
O148     O      0.901520000000     0.683190000000     0.854550000000    -0.534865   
O149     O      0.904460000000     0.749330000000     0.847990000000    -0.547834   
O150     O      0.783940000000     0.688280000000     0.817060000000    -0.547085   
O151     O      0.824580000000     0.715600000000     0.877270000000    -0.546858   
O152     O      0.865340000000     0.722320000000     0.788700000000    -0.530423   
O153     O      0.168260000000     0.826040000000     0.949050000000    -0.549168   
O154     O      0.208090000000     0.858550000000     0.860360000000    -0.540786   
O155     O      0.247360000000     0.874370000000     0.920170000000    -0.537621   
O156     O      0.127910000000     0.808940000000     0.889150000000    -0.558995   
O157     O      0.120850000000     0.870030000000     0.894820000000    -0.546935   
O158     O      0.242180000000     0.936610000000     0.924510000000    -0.53072    
O159     O      0.200110000000     0.919190000000     0.865190000000    -0.554203   
O160     O      0.161800000000     0.887620000000     0.953930000000    -0.536752   
O161     O      0.494540000000     0.985150000000     0.521610000000    -0.549631   
O162     O      0.532380000000     0.983830000000     0.933400000000    -0.554108   
O163     O      0.573730000000     0.008300000000     0.493200000000    -0.55086    
O164     O      0.454550000000     0.961140000000     0.962330000000    -0.558101   
O165     O      0.467270000000     0.030910000000     0.953000000000    -0.550231   
O166     O      0.585600000000     0.078290000000     0.486860000000    -0.547983   
O167     O      0.547590000000     0.054900000000     0.926410000000    -0.536896   
O168     O      0.505760000000     0.054700000000     0.513590000000    -0.551956   
O169     O      0.195840000000     0.288660000000     0.612730000000    -0.551375   
O170     O      0.163480000000     0.278150000000     0.703480000000    -0.548313   
O171     O      0.118580000000     0.257420000000     0.645820000000    -0.552732   
O172     O      0.241540000000     0.310580000000     0.670820000000    -0.534549   
O173     O      0.247160000000     0.378630000000     0.669830000000    -0.546478   
O174     O      0.125590000000     0.325910000000     0.644130000000    -0.55773    
O175     O      0.171250000000     0.347130000000     0.701740000000    -0.543865   
O176     O      0.203940000000     0.357650000000     0.611070000000    -0.554058   
O177     O      0.880270000000     0.160580000000     0.513950000000    -0.556039   
O178     O      0.838570000000     0.118490000000     0.600840000000    -0.531724   
O179     O      0.798640000000     0.108080000000     0.541340000000    -0.535084   
O180     O      0.918440000000     0.169830000000     0.572920000000    -0.555451   
O181     O      0.913200000000     0.231080000000     0.582230000000    -0.528343   
O182     O      0.792940000000     0.169210000000     0.550800000000    -0.557195   
O183     O      0.831870000000     0.179130000000     0.610260000000    -0.552862   
O184     O      0.873270000000     0.221190000000     0.523100000000    -0.550804   
O185     O      0.533770000000     0.486030000000     0.705170000000    -0.551382   
O186     O      0.499520000000     0.440880000000     0.792890000000    -0.526062   
O187     O      0.456680000000     0.424440000000     0.734440000000    -0.554178   
O188     O      0.575810000000     0.501280000000     0.763850000000    -0.552307   
O189     O      0.560110000000     0.555830000000     0.774900000000    -0.544535   
O190     O      0.440390000000     0.478490000000     0.745340000000    -0.533401   
O191     O      0.482320000000     0.494440000000     0.803340000000    -0.546021   
O192     O      0.517020000000     0.539990000000     0.715910000000    -0.548084   
O193     O      0.184190000000     0.369100000000     0.856650000000    -0.550223   
O194     O      0.210260000000     0.363660000000     0.947080000000    -0.560095   
O195     O      0.231130000000     0.338600000000     0.889410000000    -0.556617   
O196     O      0.163440000000     0.393620000000     0.913690000000    -0.544979   
O197     O      0.101890000000     0.326120000000     0.918580000000    -0.548676   
O198     O      0.169360000000     0.270860000000     0.892610000000    -0.546839   
O199     O      0.149950000000     0.294870000000     0.950970000000    -0.534112   
O200     O      0.121930000000     0.301870000000     0.860720000000    -0.545919   
O201     O      0.375650000000     0.176490000000     0.888310000000    -0.55924    
O202     O      0.380180000000     0.212100000000     0.798760000000    -0.550364   
O203     O      0.349430000000     0.227860000000     0.855450000000    -0.535626   
O204     O      0.406150000000     0.161280000000     0.831710000000    -0.564795   
O205     O      0.339610000000     0.100300000000     0.822900000000    -0.528352   
O206     O      0.282540000000     0.167180000000     0.846500000000    -0.548695   
O207     O      0.312600000000     0.151830000000     0.790030000000    -0.539639   
O208     O      0.307840000000     0.116460000000     0.879600000000    -0.546684   
O209     O      0.042040000000     0.553890000000     0.948970000000    -0.557413   
O210     O      0.032710000000     0.507020000000     0.535790000000    -0.534877   
O211     O      0.059410000000     0.493980000000     0.975690000000    -0.555593   
O212     O      0.015530000000     0.568170000000     0.508500000000    -0.555932   
O213     O      0.945550000000     0.513330000000     0.497690000000    -0.540017   
O214     O      0.989410000000     0.438320000000     0.966050000000    -0.554933   
O215     O      0.961960000000     0.453600000000     0.525300000000    -0.549792   
O216     O      0.971770000000     0.499350000000     0.938570000000    -0.547689   
O217     O      0.726910000000     0.905490000000     0.601790000000    -0.544582   
O218     O      0.721240000000     0.885650000000     0.694870000000    -0.549648   
O219     O      0.753060000000     0.861940000000     0.643370000000    -0.553706   
O220     O      0.694670000000     0.930430000000     0.653610000000    -0.547455   
O221     O      0.628300000000     0.867630000000     0.647770000000    -0.549594   
O222     O      0.686810000000     0.799370000000     0.636220000000    -0.552583   
O223     O      0.654500000000     0.823310000000     0.688720000000    -0.552587   
O224     O      0.659390000000     0.843940000000     0.596070000000    -0.541551   
O225     O      0.911830000000     0.721480000000     0.628300000000    -0.557984   
O226     O      0.873980000000     0.717750000000     0.539720000000    -0.556114   
O227     O      0.861650000000     0.749370000000     0.596690000000    -0.553762   
O228     O      0.924050000000     0.688590000000     0.571190000000    -0.552625   
O229     O      0.862120000000     0.622310000000     0.580200000000    -0.560381   
O230     O      0.800930000000     0.682940000000     0.607920000000    -0.550709   
O231     O      0.812010000000     0.651690000000     0.549540000000    -0.551155   
O232     O      0.851970000000     0.653590000000     0.637620000000    -0.554775   
O233     O      0.521300000000     0.058750000000     0.679310000000    -0.5544     
O234     O      0.562340000000     0.051880000000     0.765200000000    -0.556717   
O235     O      0.576370000000     0.031470000000     0.703510000000    -0.553819   
O236     O      0.506950000000     0.078610000000     0.741120000000    -0.555005   
O237     O      0.448850000000     0.008770000000     0.746650000000    -0.546043   
O238     O      0.518020000000     0.961800000000     0.708930000000    -0.540127   
O239     O      0.504980000000     0.981600000000     0.770840000000    -0.548373   
O240     O      0.463380000000     0.988720000000     0.684800000000    -0.534743   
O241     O      0.302670000000     0.157080000000     0.545470000000    -0.555362   
O242     O      0.310640000000     0.199440000000     0.633380000000    -0.55442    
O243     O      0.337400000000     0.238730000000     0.573740000000    -0.538652   
O244     O      0.276040000000     0.118150000000     0.604890000000    -0.561316   
O245     O      0.341300000000     0.120400000000     0.612730000000    -0.548364   
O246     O      0.402580000000     0.240330000000     0.578850000000    -0.557367   
O247     O      0.377450000000     0.204290000000     0.639100000000    -0.556038   
O248     O      0.367280000000     0.157560000000     0.552380000000    -0.556025   
O249     O      0.507280000000     0.541450000000     0.547160000000    -0.550246   
O250     O      0.475270000000     0.495780000000     0.959250000000    -0.550925   
O251     O      0.458590000000     0.459550000000     0.520830000000    -0.558718   
O252     O      0.523220000000     0.577530000000     0.985280000000    -0.557151   
O253     O      0.584720000000     0.571550000000     0.981510000000    -0.545471   
O254     O      0.519830000000     0.452990000000     0.518040000000    -0.552789   
O255     O      0.535880000000     0.488060000000     0.956560000000    -0.552797   
O256     O      0.568770000000     0.535410000000     0.543520000000    -0.549651   
O257     O      0.132310000000     0.851250000000     0.712870000000    -0.551828   
O258     O      0.119490000000     0.846330000000     0.619310000000    -0.554791   
O259     O      0.089790000000     0.784450000000     0.667540000000    -0.554484   
O260     O      0.161410000000     0.912200000000     0.664520000000    -0.559176   
O261     O      0.223000000000     0.906750000000     0.660050000000    -0.530658   
O262     O      0.151350000000     0.779000000000     0.662700000000    -0.541413   
O263     O      0.180530000000     0.839590000000     0.614610000000    -0.548839   
O264     O      0.193100000000     0.844140000000     0.707970000000    -0.551629   
O265     O      0.976460000000     0.533330000000     0.782370000000    -0.55876    
O266     O      0.966230000000     0.496910000000     0.692930000000    -0.561509   
O267     O      0.946260000000     0.453830000000     0.751380000000    -0.5571     
O268     O      0.996510000000     0.576100000000     0.724180000000    -0.554475   
O269     O      0.064510000000     0.583000000000     0.724330000000    -0.556891   
O270     O      0.014860000000     0.462630000000     0.755010000000    -0.553887   
O271     O      0.033740000000     0.502820000000     0.695280000000    -0.551143   
O272     O      0.045970000000     0.544190000000     0.784230000000    -0.550654   
O273     O      0.820420000000     0.174590000000     0.766620000000    -0.552665   
O274     O      0.833690000000     0.187900000000     0.860220000000    -0.548419   
O275     O      0.855850000000     0.244610000000     0.808950000000    -0.557388   
O276     O      0.797980000000     0.117000000000     0.818580000000    -0.549088   
O277     O      0.864230000000     0.120570000000     0.814980000000    -0.536724   
O278     O      0.921860000000     0.247820000000     0.805330000000    -0.536015   
O279     O      0.899420000000     0.190030000000     0.856430000000    -0.533676   
O280     O      0.886070000000     0.176450000000     0.763370000000    -0.557377   
O281     O      0.660830000000     0.864380000000     0.931440000000    -0.550692   
O282     O      0.653910000000     0.818580000000     0.844470000000    -0.531752   
O283     O      0.626870000000     0.782050000000     0.904960000000    -0.529881   
O284     O      0.688100000000     0.901550000000     0.870830000000    -0.553329   
O285     O      0.753490000000     0.904550000000     0.879880000000    -0.558437   
O286     O      0.691920000000     0.783830000000     0.911660000000    -0.545107   
O287     O      0.720520000000     0.823590000000     0.851840000000    -0.555568   
O288     O      0.726220000000     0.866830000000     0.939330000000    -0.551671   
V1       V      0.841030000000     0.649850000000     0.339540000000     1.44645    
V2       V      0.844440000000     0.721480000000     0.332560000000     1.38975    
V3       V      0.188090000000     0.839510000000     0.404420000000     1.4306     
V4       V      0.181100000000     0.905940000000     0.409810000000     1.41611    
V5       V      0.513470000000     0.981900000000     0.977940000000     1.41765    
V6       V      0.527080000000     0.057520000000     0.469640000000     1.38674    
V7       V      0.179600000000     0.280930000000     0.158140000000     1.39169    
V8       V      0.187070000000     0.354940000000     0.156340000000     1.43001    
V9       V      0.858990000000     0.136710000000     0.056850000000     1.42706    
V10      V      0.852570000000     0.202600000000     0.067050000000     1.39641    
V11      V      0.517110000000     0.461070000000     0.248530000000     1.40617    
V12      V      0.499460000000     0.519500000000     0.260180000000     1.40715    
V13      V      0.199700000000     0.368880000000     0.401650000000     1.43956    
V14      V      0.133280000000     0.295670000000     0.406040000000     1.39619    
V15      V      0.380510000000     0.196830000000     0.343930000000     1.4235     
V16      V      0.308080000000     0.131330000000     0.334320000000     1.41171    
V17      V      0.040250000000     0.532910000000     0.492750000000     1.41895    
V18      V      0.964470000000     0.473840000000     0.981370000000     1.43151    
V19      V      0.726560000000     0.898470000000     0.148690000000     1.41164    
V20      V      0.654660000000     0.830980000000     0.142040000000     1.41278    
V21      V      0.895370000000     0.721910000000     0.083530000000     1.40841    
V22      V      0.829210000000     0.650030000000     0.094170000000     1.40832    
V23      V      0.544000000000     0.057980000000     0.222110000000     1.38866    
V24      V      0.481420000000     0.982500000000     0.228170000000     1.41823    
V25      V      0.304100000000     0.178280000000     0.089130000000     1.42651    
V26      V      0.374740000000     0.180620000000     0.096070000000     1.38962    
V27      V      0.488720000000     0.518910000000     0.003300000000     1.40456    
V28      V      0.554860000000     0.511930000000     0.499790000000     1.38874    
V29      V      0.123260000000     0.848760000000     0.166280000000     1.39697    
V30      V      0.189550000000     0.842340000000     0.161110000000     1.43874    
V31      V      0.968590000000     0.514590000000     0.237660000000     1.41342    
V32      V      0.042480000000     0.523360000000     0.239920000000     1.40449    
V33      V      0.824270000000     0.180860000000     0.313600000000     1.38295    
V34      V      0.895580000000     0.184050000000     0.309740000000     1.43981    
V35      V      0.654800000000     0.841510000000     0.387610000000     1.40881    
V36      V      0.725530000000     0.844580000000     0.396040000000     1.40828    
V37      V      0.841030000000     0.649850000000     0.839540000000     1.44643    
V38      V      0.844440000000     0.721480000000     0.832560000000     1.3899     
V39      V      0.188090000000     0.839520000000     0.904420000000     1.43058    
V40      V      0.181100000000     0.905930000000     0.909800000000     1.41565    
V41      V      0.513470000000     0.981900000000     0.477940000000     1.41749    
V42      V      0.527080000000     0.057520000000     0.969640000000     1.38691    
V43      V      0.179610000000     0.280930000000     0.658140000000     1.39173    
V44      V      0.187070000000     0.354940000000     0.656340000000     1.43009    
V45      V      0.858990000000     0.136710000000     0.556850000000     1.42732    
V46      V      0.852570000000     0.202600000000     0.567050000000     1.39624    
V47      V      0.517110000000     0.461070000000     0.748530000000     1.40613    
V48      V      0.499460000000     0.519500000000     0.760190000000     1.4074     
V49      V      0.199700000000     0.368870000000     0.901650000000     1.43922    
V50      V      0.133280000000     0.295670000000     0.906040000000     1.39613    
V51      V      0.380510000000     0.196830000000     0.843930000000     1.42349    
V52      V      0.308080000000     0.131330000000     0.834320000000     1.41172    
V53      V      0.040260000000     0.532920000000     0.992750000000     1.41895    
V54      V      0.964460000000     0.473840000000     0.481370000000     1.43148    
V55      V      0.726560000000     0.898470000000     0.648690000000     1.41163    
V56      V      0.654660000000     0.830980000000     0.642040000000     1.41273    
V57      V      0.895360000000     0.721910000000     0.583530000000     1.40827    
V58      V      0.829210000000     0.650030000000     0.594170000000     1.40835    
V59      V      0.544000000000     0.057980000000     0.722110000000     1.38866    
V60      V      0.481420000000     0.982500000000     0.728170000000     1.41823    
V61      V      0.304100000000     0.178280000000     0.589130000000     1.42647    
V62      V      0.374740000000     0.180620000000     0.596070000000     1.38972    
V63      V      0.488720000000     0.518910000000     0.503300000000     1.40458    
V64      V      0.554860000000     0.511930000000     0.999790000000     1.38851    
V65      V      0.123260000000     0.848760000000     0.666290000000     1.3972     
V66      V      0.189550000000     0.842340000000     0.661110000000     1.43842    
V67      V      0.968590000000     0.514590000000     0.737660000000     1.41379    
V68      V      0.042480000000     0.523350000000     0.739920000000     1.40461    
V69      V      0.824270000000     0.180860000000     0.813600000000     1.38285    
V70      V      0.895580000000     0.184050000000     0.809730000000     1.43982    
V71      V      0.654800000000     0.841510000000     0.887620000000     1.4088     
V72      V      0.725530000000     0.844580000000     0.896040000000     1.40816    


