data_structure

_audit_creation_method RASPA-1.0
_audit_creation_date 2023-5-19
_audit_author_name 'Poobodin Mano'

_cell_length_a    41.6958
_cell_length_b    41.2624
_cell_length_c    42.0121
_cell_angle_alpha 90
_cell_angle_beta  90
_cell_angle_gamma 90
_cell_volume      72280.5

_symmetry_cell_setting          triclinic
_symmetry_space_group_name_Hall 'P 1'
_symmetry_space_group_name_H-M  'P 1'
_symmetry_Int_Tables_number     1

_symmetry_equiv_pos_as_xyz 'x,y,z'

loop_
_atom_site_label
_atom_site_type_symbol
_atom_site_fract_x
_atom_site_fract_y
_atom_site_fract_z
_atom_site_charge
C1       C      0.499890000000     0.069730000000     0.267360000000     0.474676   
C2       C      0.522840000000     0.450940000000     0.249280000000     0.494886   
C3       C      0.452060000000     0.499190000000     0.260720000000     0.492496   
C4       C      0.071150000000     0.522780000000     0.256780000000     0.47211    
C5       C      0.512290000000     0.321660000000     0.257470000000     0.481342   
C6       C      0.508430000000     0.199380000000     0.260340000000     0.492053   
C7       C      0.013400000000     0.258910000000     0.198550000000     0.479659   
C8       C      0.006910000000     0.262370000000     0.318480000000     0.485215   
C9       C      0.321500000000     0.497320000000     0.263960000000     0.472291   
C10      C      0.202500000000     0.516890000000     0.251640000000     0.488589   
C11      C      0.256520000000     0.012450000000     0.316980000000     0.488804   
C12      C      0.267940000000     0.002640000000     0.197340000000     0.470913   
C13      C      0.260310000000     0.015870000000     0.068580000000     0.48779    
C14      C      0.260560000000     0.017500000000     0.448130000000     0.470544   
C15      C      0.254230000000     0.078670000000     0.510380000000     0.469818   
C16      C      0.266490000000     0.456630000000     0.507260000000     0.47305    
C17      C      0.013330000000     0.263900000000     0.067090000000     0.468126   
C18      C      0.998660000000     0.270010000000     0.447740000000     0.482696   
C19      C      0.066240000000     0.267150000000     0.500900000000     0.471082   
C20      C      0.445620000000     0.265270000000     0.513630000000     0.472412   
C21      C      0.257750000000     0.211110000000     0.498460000000     0.485402   
C22      C      0.256510000000     0.332670000000     0.483000000000     0.493011   
C23      C      0.197050000000     0.271970000000     0.988520000000     0.499339   
C24      C      0.318120000000     0.273430000000     0.993040000000     0.495317   
C25      C      0.394780000000     0.236860000000     0.502440000000    -0.0118367  
C26      C      0.394610000000     0.290730000000     0.030570000000    -0.0598055  
C27      C      0.369960000000     0.249590000000     0.478640000000    -0.00347584 
C28      C      0.367980000000     0.302650000000     0.008280000000     0.162122   
C29      C      0.117550000000     0.287600000000     0.020940000000    -0.0130179  
C30      C      0.115760000000     0.241540000000     0.981360000000    -0.0609845  
C31      C      0.148300000000     0.299880000000     0.505430000000    -0.00437226 
C32      C      0.145160000000     0.255670000000     0.464240000000     0.169353   
C33      C      0.294490000000     0.406910000000     0.488770000000    -0.0138695  
C34      C      0.244280000000     0.403460000000     0.021770000000    -0.0678164  
C35      C      0.279020000000     0.384140000000     0.463780000000    -0.00517025 
C36      C      0.228210000000     0.383550000000     0.995800000000     0.181721   
C37      C      0.224570000000     0.128720000000     0.997380000000    -0.00331549 
C38      C      0.270720000000     0.129970000000     0.035690000000    -0.0605772  
C39      C      0.238250000000     0.158400000000     0.480260000000    -0.00520171 
C40      C      0.282700000000     0.161900000000     0.021020000000     0.165849   
C41      C      0.285120000000     0.031210000000     0.396520000000    -0.0111804  
C42      C      0.243280000000     0.487460000000     0.400780000000    -0.0620594  
C43      C      0.269720000000     0.042800000000     0.365500000000    -0.00444984 
C44      C      0.230030000000     0.496910000000     0.367940000000     0.16818    
C45      C      0.296050000000     0.018730000000     0.148080000000    -0.0107607  
C46      C      0.251900000000     0.477420000000     0.146490000000    -0.0609958  
C47      C      0.281720000000     0.035890000000     0.119190000000    -0.0046432  
C48      C      0.235850000000     0.495700000000     0.118830000000     0.168406   
C49      C      0.472610000000     0.250170000000     0.398710000000    -0.010551   
C50      C      0.008470000000     0.299080000000     0.397590000000    -0.0797264  
C51      C      0.487670000000     0.238030000000     0.367710000000    -0.00483682 
C52      C      0.026650000000     0.285210000000     0.369010000000     0.174271   
C53      C      0.038320000000     0.238750000000     0.114550000000    -0.0138657  
C54      C      0.509260000000     0.292060000000     0.118180000000    -0.0621025  
C55      C      0.028670000000     0.231570000000     0.149370000000    -0.00581728 
C56      C      0.493000000000     0.281280000000     0.148700000000     0.171616   
C57      C      0.119230000000     0.047830000000     0.231050000000    -0.0119428  
C58      C      0.122340000000     0.024350000000     0.285800000000    -0.0619838  
C59      C      0.153910000000     0.535720000000     0.224660000000    -0.00712732 
C60      C      0.151360000000     0.504280000000     0.276730000000     0.171062   
C61      C      0.370610000000     0.010440000000     0.293520000000    -0.0100472  
C62      C      0.370220000000     0.465060000000     0.253760000000    -0.0605678  
C63      C      0.402800000000     0.022150000000     0.280780000000    -0.00500756 
C64      C      0.401350000000     0.478010000000     0.238760000000     0.169704   
C65      C      0.489690000000     0.374020000000     0.240520000000    -0.0100804  
C66      C      0.036390000000     0.371420000000     0.278920000000    -0.061282   
C67      C      0.506940000000     0.400970000000     0.222130000000    -0.0037503  
C68      C      0.052190000000     0.399910000000     0.261620000000     0.169843   
C69      C      0.471540000000     0.119690000000     0.251370000000    -0.00943308 
C70      C      0.009180000000     0.119800000000     0.297840000000    -0.0792967  
C71      C      0.488710000000     0.148910000000     0.237130000000    -0.00459399 
C72      C      0.028410000000     0.147700000000     0.282980000000     0.172211   
C73      C      0.499890000000     0.069730000000     0.767360000000     0.474662   
C74      C      0.522840000000     0.450940000000     0.749280000000     0.494865   
C75      C      0.452060000000     0.499190000000     0.760720000000     0.492497   
C76      C      0.071150000000     0.522780000000     0.756780000000     0.472097   
C77      C      0.512290000000     0.321660000000     0.757470000000     0.481337   
C78      C      0.508430000000     0.199380000000     0.760340000000     0.492056   
C79      C      0.013400000000     0.258910000000     0.698550000000     0.479675   
C80      C      0.006910000000     0.262370000000     0.818480000000     0.485253   
C81      C      0.321500000000     0.497320000000     0.763960000000     0.472288   
C82      C      0.202500000000     0.516890000000     0.751640000000     0.48859    
C83      C      0.256520000000     0.012450000000     0.816980000000     0.488806   
C84      C      0.267940000000     0.002640000000     0.697340000000     0.470905   
C85      C      0.260310000000     0.015870000000     0.568590000000     0.488027   
C86      C      0.260560000000     0.017500000000     0.948130000000     0.470088   
C87      C      0.254230000000     0.078670000000     0.010380000000     0.469242   
C88      C      0.266490000000     0.456630000000     0.007260000000     0.47235    
C89      C      0.013330000000     0.263900000000     0.567090000000     0.468586   
C90      C      0.998660000000     0.270010000000     0.947750000000     0.481835   
C91      C      0.066240000000     0.267150000000     0.000900000000     0.462262   
C92      C      0.445620000000     0.265270000000     0.013630000000     0.471165   
C93      C      0.257750000000     0.211110000000     0.998460000000     0.493444   
C94      C      0.256510000000     0.332670000000     0.982990000000     0.49814    
C95      C      0.197050000000     0.271970000000     0.488520000000     0.495025   
C96      C      0.318120000000     0.273430000000     0.493040000000     0.49076    
C97      C      0.394780000000     0.236860000000     0.002440000000    -0.0203048  
C98      C      0.394610000000     0.290730000000     0.530570000000    -0.0609337  
C99      C      0.369960000000     0.249590000000     0.978640000000     0.00171246 
C100     C      0.367980000000     0.302650000000     0.508280000000     0.168621   
C101     C      0.117550000000     0.287600000000     0.520940000000    -0.0115454  
C102     C      0.115760000000     0.241540000000     0.481360000000    -0.0607307  
C103     C      0.148300000000     0.299880000000     0.005430000000    -0.0112753  
C104     C      0.145160000000     0.255670000000     0.964240000000     0.169707   
C105     C      0.294490000000     0.406910000000     0.988770000000    -0.00655897 
C106     C      0.244280000000     0.403460000000     0.521780000000    -0.0632331  
C107     C      0.279020000000     0.384140000000     0.963790000000    -0.00624078 
C108     C      0.228210000000     0.383550000000     0.495800000000     0.174428   
C109     C      0.224570000000     0.128720000000     0.497380000000    -0.0105038  
C110     C      0.270720000000     0.129970000000     0.535690000000    -0.0604586  
C111     C      0.238250000000     0.158400000000     0.980260000000    -0.00374452 
C112     C      0.282700000000     0.161900000000     0.521020000000     0.165877   
C113     C      0.285120000000     0.031210000000     0.896510000000    -0.0112761  
C114     C      0.243280000000     0.487460000000     0.900780000000    -0.0620509  
C115     C      0.269720000000     0.042800000000     0.865500000000    -0.00440145 
C116     C      0.230030000000     0.496910000000     0.867940000000     0.16811    
C117     C      0.296050000000     0.018730000000     0.648080000000    -0.0107777  
C118     C      0.251900000000     0.477420000000     0.646490000000    -0.0610141  
C119     C      0.281720000000     0.035890000000     0.619190000000    -0.00461917 
C120     C      0.235850000000     0.495700000000     0.618830000000     0.168432   
C121     C      0.472610000000     0.250170000000     0.898710000000    -0.0106366  
C122     C      0.008470000000     0.299080000000     0.897590000000    -0.0797455  
C123     C      0.487670000000     0.238030000000     0.867710000000    -0.00481443 
C124     C      0.026650000000     0.285210000000     0.869010000000     0.174314   
C125     C      0.038320000000     0.238750000000     0.614550000000    -0.0138673  
C126     C      0.509260000000     0.292060000000     0.618180000000    -0.0621038  
C127     C      0.028670000000     0.231570000000     0.649370000000    -0.00581752 
C128     C      0.493000000000     0.281280000000     0.648700000000     0.171614   
C129     C      0.119230000000     0.047830000000     0.731050000000    -0.0119596  
C130     C      0.122340000000     0.024350000000     0.785800000000    -0.0620556  
C131     C      0.153910000000     0.535720000000     0.724660000000    -0.00712962 
C132     C      0.151360000000     0.504280000000     0.776730000000     0.171174   
C133     C      0.370610000000     0.010440000000     0.793520000000    -0.0100564  
C134     C      0.370220000000     0.465060000000     0.753760000000    -0.0606028  
C135     C      0.402800000000     0.022150000000     0.780780000000    -0.00504086 
C136     C      0.401350000000     0.478010000000     0.738760000000     0.169768   
C137     C      0.489690000000     0.374020000000     0.740520000000    -0.0100452  
C138     C      0.036390000000     0.371420000000     0.778920000000    -0.0613629  
C139     C      0.506940000000     0.400970000000     0.722120000000    -0.0038686  
C140     C      0.052190000000     0.399910000000     0.761620000000     0.169863   
C141     C      0.471540000000     0.119690000000     0.751370000000    -0.00944259 
C142     C      0.009180000000     0.119800000000     0.797850000000    -0.0792905  
C143     C      0.488710000000     0.148910000000     0.737130000000    -0.00460048 
C144     C      0.028410000000     0.147700000000     0.782970000000     0.172194   
C145     C      0.499890000000     0.569730000000     0.267360000000     0.474674   
C146     C      0.522840000000     0.950940000000     0.249280000000     0.494874   
C147     C      0.452060000000     0.999190000000     0.260720000000     0.49279    
C148     C      0.071150000000     0.022780000000     0.256780000000     0.472106   
C149     C      0.512290000000     0.821660000000     0.257470000000     0.481212   
C150     C      0.508430000000     0.699380000000     0.260340000000     0.492055   
C151     C      0.013400000000     0.758910000000     0.198550000000     0.479711   
C152     C      0.006910000000     0.762370000000     0.318480000000     0.485243   
C153     C      0.321500000000     0.997320000000     0.263960000000     0.472433   
C154     C      0.202500000000     0.016890000000     0.251640000000     0.488428   
C155     C      0.256520000000     0.512450000000     0.316980000000     0.489257   
C156     C      0.267940000000     0.502640000000     0.197340000000     0.471066   
C157     C      0.260310000000     0.515870000000     0.068580000000     0.487808   
C158     C      0.260560000000     0.517500000000     0.448130000000     0.470567   
C159     C      0.254230000000     0.578670000000     0.510380000000     0.469827   
C160     C      0.266490000000     0.956630000000     0.507260000000     0.47303    
C161     C      0.013330000000     0.763900000000     0.067090000000     0.468444   
C162     C      0.998660000000     0.770000000000     0.447740000000     0.482693   
C163     C      0.066240000000     0.767150000000     0.500900000000     0.471086   
C164     C      0.445620000000     0.765270000000     0.513630000000     0.472415   
C165     C      0.257750000000     0.711110000000     0.498460000000     0.48531    
C166     C      0.256510000000     0.832670000000     0.483000000000     0.492967   
C167     C      0.197050000000     0.771970000000     0.988520000000     0.499331   
C168     C      0.318120000000     0.773420000000     0.993040000000     0.495304   
C169     C      0.394780000000     0.736860000000     0.502440000000    -0.0118642  
C170     C      0.394610000000     0.790730000000     0.030570000000    -0.0598022  
C171     C      0.369960000000     0.749590000000     0.478640000000    -0.00348281 
C172     C      0.367980000000     0.802650000000     0.008280000000     0.1621     
C173     C      0.117550000000     0.787590000000     0.020940000000    -0.012953   
C174     C      0.115760000000     0.741550000000     0.981360000000    -0.0609099  
C175     C      0.148300000000     0.799880000000     0.505430000000    -0.0044044  
C176     C      0.145160000000     0.755670000000     0.464240000000     0.169327   
C177     C      0.294490000000     0.906910000000     0.488770000000    -0.0138897  
C178     C      0.244280000000     0.903460000000     0.021770000000    -0.0678587  
C179     C      0.279020000000     0.884140000000     0.463780000000    -0.00516265 
C180     C      0.228210000000     0.883550000000     0.995800000000     0.181848   
C181     C      0.224570000000     0.628720000000     0.997380000000    -0.00331979 
C182     C      0.270720000000     0.629970000000     0.035690000000    -0.0605773  
C183     C      0.238250000000     0.658400000000     0.480260000000    -0.00518765 
C184     C      0.282700000000     0.661900000000     0.021020000000     0.165854   
C185     C      0.285120000000     0.531210000000     0.396520000000    -0.0111762  
C186     C      0.243280000000     0.987450000000     0.400780000000    -0.0621216  
C187     C      0.269720000000     0.542800000000     0.365500000000    -0.0044322  
C188     C      0.230030000000     0.996910000000     0.367940000000     0.168403   
C189     C      0.296050000000     0.518730000000     0.148080000000    -0.0107486  
C190     C      0.251900000000     0.977420000000     0.146490000000    -0.0609608  
C191     C      0.281720000000     0.535890000000     0.119190000000    -0.00464129 
C192     C      0.235850000000     0.995700000000     0.118830000000     0.168616   
C193     C      0.472610000000     0.750170000000     0.398710000000    -0.0105521  
C194     C      0.008470000000     0.799080000000     0.397590000000    -0.0797177  
C195     C      0.487670000000     0.738030000000     0.367710000000    -0.00483461 
C196     C      0.026650000000     0.785210000000     0.369010000000     0.174266   
C197     C      0.038320000000     0.738760000000     0.114550000000    -0.0137675  
C198     C      0.509260000000     0.792060000000     0.118180000000    -0.062086   
C199     C      0.028670000000     0.731570000000     0.149370000000    -0.00585403 
C200     C      0.493000000000     0.781280000000     0.148700000000     0.171609   
C201     C      0.119230000000     0.547830000000     0.231050000000    -0.0119356  
C202     C      0.122340000000     0.524350000000     0.285800000000    -0.0620558  
C203     C      0.153910000000     0.035720000000     0.224660000000    -0.00711597 
C204     C      0.151360000000     0.004280000000     0.276730000000     0.1708     
C205     C      0.370610000000     0.510440000000     0.293520000000    -0.00982569 
C206     C      0.370220000000     0.965060000000     0.253760000000    -0.0605687  
C207     C      0.402800000000     0.522150000000     0.280780000000    -0.00498482 
C208     C      0.401350000000     0.978010000000     0.238760000000     0.169742   
C209     C      0.489690000000     0.874020000000     0.240520000000    -0.010084   
C210     C      0.036390000000     0.871420000000     0.278920000000    -0.0612888  
C211     C      0.506940000000     0.900970000000     0.222130000000    -0.00375084 
C212     C      0.052190000000     0.899910000000     0.261620000000     0.169841   
C213     C      0.471540000000     0.619690000000     0.251370000000    -0.00943412 
C214     C      0.009180000000     0.619800000000     0.297840000000    -0.0793265  
C215     C      0.488710000000     0.648910000000     0.237130000000    -0.00459377 
C216     C      0.028410000000     0.647700000000     0.282980000000     0.172217   
C217     C      0.499890000000     0.569730000000     0.767360000000     0.47466    
C218     C      0.522840000000     0.950940000000     0.749280000000     0.494853   
C219     C      0.452060000000     0.999190000000     0.760720000000     0.49279    
C220     C      0.071150000000     0.022780000000     0.756780000000     0.472093   
C221     C      0.512290000000     0.821660000000     0.757470000000     0.481207   
C222     C      0.508430000000     0.699380000000     0.760340000000     0.492058   
C223     C      0.013400000000     0.758910000000     0.698550000000     0.479727   
C224     C      0.006910000000     0.762370000000     0.818480000000     0.485281   
C225     C      0.321500000000     0.997320000000     0.763960000000     0.47243    
C226     C      0.202500000000     0.016890000000     0.751640000000     0.48843    
C227     C      0.256520000000     0.512450000000     0.816980000000     0.489259   
C228     C      0.267940000000     0.502640000000     0.697340000000     0.471058   
C229     C      0.260310000000     0.515870000000     0.568590000000     0.488045   
C230     C      0.260560000000     0.517500000000     0.948130000000     0.47011    
C231     C      0.254230000000     0.578670000000     0.010380000000     0.469251   
C232     C      0.266490000000     0.956630000000     0.007260000000     0.472331   
C233     C      0.013330000000     0.763900000000     0.567090000000     0.468905   
C234     C      0.998660000000     0.770000000000     0.947750000000     0.481832   
C235     C      0.066240000000     0.767150000000     0.000900000000     0.462267   
C236     C      0.445620000000     0.765270000000     0.013630000000     0.471168   
C237     C      0.257750000000     0.711110000000     0.998460000000     0.493348   
C238     C      0.256510000000     0.832670000000     0.982990000000     0.498095   
C239     C      0.197050000000     0.771970000000     0.488520000000     0.495018   
C240     C      0.318120000000     0.773420000000     0.493040000000     0.490748   
C241     C      0.394780000000     0.736860000000     0.002440000000    -0.0203358  
C242     C      0.394610000000     0.790730000000     0.530570000000    -0.06093    
C243     C      0.369960000000     0.749590000000     0.978640000000     0.00170624 
C244     C      0.367980000000     0.802650000000     0.508280000000     0.168598   
C245     C      0.117550000000     0.787590000000     0.520940000000    -0.0114785  
C246     C      0.115760000000     0.741550000000     0.481360000000    -0.0606559  
C247     C      0.148300000000     0.799880000000     0.005430000000    -0.011306   
C248     C      0.145160000000     0.755670000000     0.964240000000     0.169681   
C249     C      0.294490000000     0.906910000000     0.988770000000    -0.00657914 
C250     C      0.244280000000     0.903460000000     0.521780000000    -0.0632755  
C251     C      0.279020000000     0.884140000000     0.963790000000    -0.0062333  
C252     C      0.228210000000     0.883550000000     0.495800000000     0.174554   
C253     C      0.224570000000     0.628720000000     0.497380000000    -0.0105076  
C254     C      0.270720000000     0.629970000000     0.535690000000    -0.0604587  
C255     C      0.238250000000     0.658400000000     0.980260000000    -0.00373034 
C256     C      0.282700000000     0.661900000000     0.521020000000     0.165882   
C257     C      0.285120000000     0.531210000000     0.896510000000    -0.0112718  
C258     C      0.243280000000     0.987450000000     0.900780000000    -0.0621135  
C259     C      0.269720000000     0.542800000000     0.865500000000    -0.00438387 
C260     C      0.230030000000     0.996910000000     0.867940000000     0.168332   
C261     C      0.296050000000     0.518730000000     0.648080000000    -0.0107656  
C262     C      0.251900000000     0.977420000000     0.646490000000    -0.0609792  
C263     C      0.281720000000     0.535890000000     0.619190000000    -0.00461726 
C264     C      0.235850000000     0.995700000000     0.618830000000     0.168641   
C265     C      0.472610000000     0.750170000000     0.898710000000    -0.0106376  
C266     C      0.008470000000     0.799080000000     0.897590000000    -0.0797368  
C267     C      0.487670000000     0.738030000000     0.867710000000    -0.00481224 
C268     C      0.026650000000     0.785210000000     0.869010000000     0.17431    
C269     C      0.038320000000     0.738760000000     0.614550000000    -0.0137691  
C270     C      0.509260000000     0.792060000000     0.618180000000    -0.0620873  
C271     C      0.028670000000     0.731570000000     0.649370000000    -0.0058543  
C272     C      0.493000000000     0.781280000000     0.648700000000     0.171607   
C273     C      0.119230000000     0.547830000000     0.731050000000    -0.0119524  
C274     C      0.122340000000     0.524350000000     0.785800000000    -0.0621273  
C275     C      0.153910000000     0.035720000000     0.724660000000    -0.0071182  
C276     C      0.151360000000     0.004280000000     0.776730000000     0.170914   
C277     C      0.370610000000     0.510440000000     0.793520000000    -0.00983592 
C278     C      0.370220000000     0.965060000000     0.753760000000    -0.0606037  
C279     C      0.402800000000     0.522150000000     0.780780000000    -0.00501819 
C280     C      0.401350000000     0.978010000000     0.738760000000     0.169806   
C281     C      0.489690000000     0.874020000000     0.740520000000    -0.0100489  
C282     C      0.036390000000     0.871420000000     0.778920000000    -0.0613697  
C283     C      0.506940000000     0.900970000000     0.722120000000    -0.00386913 
C284     C      0.052190000000     0.899910000000     0.761620000000     0.169861   
C285     C      0.471540000000     0.619690000000     0.751370000000    -0.00944363 
C286     C      0.009180000000     0.619800000000     0.797850000000    -0.0793203  
C287     C      0.488710000000     0.648910000000     0.737130000000    -0.00460026 
C288     C      0.028410000000     0.647700000000     0.782970000000     0.1722     
C289     C      0.999890000000     0.069730000000     0.267360000000     0.484105   
C290     C      0.022840000000     0.450940000000     0.249280000000     0.491971   
C291     C      0.952060000000     0.499190000000     0.260720000000     0.490362   
C292     C      0.571150000000     0.522780000000     0.256780000000     0.473305   
C293     C      0.012290000000     0.321660000000     0.257470000000     0.470298   
C294     C      0.008430000000     0.199380000000     0.260340000000     0.481158   
C295     C      0.513400000000     0.258910000000     0.198550000000     0.490857   
C296     C      0.506910000000     0.262370000000     0.318480000000     0.496041   
C297     C      0.821500000000     0.497320000000     0.263960000000     0.472307   
C298     C      0.702500000000     0.516890000000     0.251640000000     0.488585   
C299     C      0.756520000000     0.012450000000     0.316980000000     0.48881    
C300     C      0.767940000000     0.002640000000     0.197340000000     0.470815   
C301     C      0.760310000000     0.015870000000     0.068580000000     0.487757   
C302     C      0.760570000000     0.017500000000     0.448130000000     0.470505   
C303     C      0.754230000000     0.078670000000     0.510380000000     0.469783   
C304     C      0.766490000000     0.456630000000     0.507260000000     0.473014   
C305     C      0.513330000000     0.263900000000     0.067090000000     0.47089    
C306     C      0.498660000000     0.270010000000     0.447740000000     0.473308   
C307     C      0.566240000000     0.267150000000     0.500900000000     0.472348   
C308     C      0.945620000000     0.265270000000     0.513630000000     0.470384   
C309     C      0.757750000000     0.211110000000     0.498460000000     0.485396   
C310     C      0.756510000000     0.332670000000     0.483000000000     0.492999   
C311     C      0.697050000000     0.271970000000     0.988520000000     0.499297   
C312     C      0.818120000000     0.273430000000     0.993040000000     0.495285   
C313     C      0.894780000000     0.236860000000     0.502440000000    -0.0120347  
C314     C      0.894610000000     0.290730000000     0.030570000000    -0.0599304  
C315     C      0.869960000000     0.249590000000     0.478640000000    -0.00341158 
C316     C      0.867980000000     0.302650000000     0.008280000000     0.162224   
C317     C      0.617550000000     0.287600000000     0.020940000000    -0.0130018  
C318     C      0.615760000000     0.241540000000     0.981360000000    -0.060947   
C319     C      0.648300000000     0.299880000000     0.505430000000    -0.00437856 
C320     C      0.645170000000     0.255670000000     0.464240000000     0.169457   
C321     C      0.794490000000     0.406910000000     0.488770000000    -0.0139264  
C322     C      0.744280000000     0.403460000000     0.021770000000    -0.0678247  
C323     C      0.779020000000     0.384140000000     0.463780000000    -0.00516652 
C324     C      0.728210000000     0.383550000000     0.995800000000     0.181684   
C325     C      0.724570000000     0.128720000000     0.997380000000    -0.00339587 
C326     C      0.770720000000     0.129970000000     0.035690000000    -0.0606084  
C327     C      0.738250000000     0.158400000000     0.480260000000    -0.00520781 
C328     C      0.782700000000     0.161900000000     0.021020000000     0.165866   
C329     C      0.785120000000     0.031210000000     0.396520000000    -0.0112072  
C330     C      0.743280000000     0.487460000000     0.400780000000    -0.0621028  
C331     C      0.769720000000     0.042800000000     0.365500000000    -0.00447708 
C332     C      0.730030000000     0.496910000000     0.367940000000     0.168237   
C333     C      0.796050000000     0.018730000000     0.148080000000    -0.010818   
C334     C      0.751900000000     0.477420000000     0.146490000000    -0.0610825  
C335     C      0.781720000000     0.035890000000     0.119190000000    -0.00463518 
C336     C      0.735850000000     0.495700000000     0.118830000000     0.168428   
C337     C      0.972610000000     0.250170000000     0.398710000000    -0.0149642  
C338     C      0.508470000000     0.299080000000     0.397590000000    -0.0611921  
C339     C      0.987670000000     0.238030000000     0.367710000000     0.0138172  
C340     C      0.526650000000     0.285210000000     0.369010000000     0.170535   
C341     C      0.538320000000     0.238750000000     0.114550000000    -0.0124385  
C342     C      0.009260000000     0.292060000000     0.118180000000    -0.0838833  
C343     C      0.528670000000     0.231570000000     0.149370000000    -0.00614562 
C344     C      0.993000000000     0.281280000000     0.148700000000     0.189008   
C345     C      0.619230000000     0.047830000000     0.231050000000    -0.0119107  
C346     C      0.622340000000     0.024350000000     0.285800000000    -0.062002   
C347     C      0.653910000000     0.535720000000     0.224660000000    -0.00715648 
C348     C      0.651360000000     0.504280000000     0.276730000000     0.171066   
C349     C      0.870600000000     0.010440000000     0.293520000000    -0.00997535 
C350     C      0.870220000000     0.465060000000     0.253760000000    -0.060549   
C351     C      0.902800000000     0.022150000000     0.280780000000    -0.00517413 
C352     C      0.901350000000     0.478010000000     0.238760000000     0.169627   
C353     C      0.989690000000     0.374020000000     0.240520000000     0.00881038 
C354     C      0.536390000000     0.371420000000     0.278920000000    -0.0616606  
C355     C      0.006940000000     0.400970000000     0.222130000000    -0.0256668  
C356     C      0.552190000000     0.399910000000     0.261620000000     0.170966   
C357     C      0.971540000000     0.119690000000     0.251370000000    -0.0139429  
C358     C      0.509180000000     0.119800000000     0.297840000000    -0.0608302  
C359     C      0.988710000000     0.148910000000     0.237130000000     0.0140079  
C360     C      0.528410000000     0.147700000000     0.282980000000     0.168584   
C361     C      0.999890000000     0.069730000000     0.767360000000     0.48406    
C362     C      0.022840000000     0.450940000000     0.749280000000     0.491956   
C363     C      0.952060000000     0.499190000000     0.760720000000     0.490369   
C364     C      0.571150000000     0.522780000000     0.756780000000     0.473289   
C365     C      0.012290000000     0.321660000000     0.757470000000     0.470322   
C366     C      0.008430000000     0.199380000000     0.760340000000     0.481189   
C367     C      0.513400000000     0.258910000000     0.698550000000     0.490851   
C368     C      0.506910000000     0.262370000000     0.818480000000     0.496046   
C369     C      0.821500000000     0.497320000000     0.763960000000     0.472305   
C370     C      0.702500000000     0.516890000000     0.751640000000     0.488586   
C371     C      0.756520000000     0.012450000000     0.816980000000     0.488812   
C372     C      0.767940000000     0.002640000000     0.697340000000     0.470807   
C373     C      0.760310000000     0.015870000000     0.568590000000     0.487992   
C374     C      0.760570000000     0.017500000000     0.948130000000     0.470053   
C375     C      0.754230000000     0.078670000000     0.010380000000     0.469209   
C376     C      0.766490000000     0.456630000000     0.007260000000     0.472318   
C377     C      0.513330000000     0.263900000000     0.567090000000     0.471349   
C378     C      0.498660000000     0.270010000000     0.947750000000     0.472509   
C379     C      0.566240000000     0.267150000000     0.000900000000     0.463556   
C380     C      0.945620000000     0.265270000000     0.013630000000     0.469145   
C381     C      0.757750000000     0.211110000000     0.998460000000     0.493382   
C382     C      0.756510000000     0.332670000000     0.982990000000     0.498093   
C383     C      0.697050000000     0.271970000000     0.488520000000     0.495011   
C384     C      0.818120000000     0.273430000000     0.493040000000     0.490766   
C385     C      0.894780000000     0.236860000000     0.002440000000    -0.020425   
C386     C      0.894610000000     0.290730000000     0.530570000000    -0.0610476  
C387     C      0.869960000000     0.249590000000     0.978640000000     0.00172764 
C388     C      0.867980000000     0.302650000000     0.508280000000     0.168667   
C389     C      0.617550000000     0.287600000000     0.520940000000    -0.0115346  
C390     C      0.615760000000     0.241540000000     0.481360000000    -0.0606943  
C391     C      0.648300000000     0.299880000000     0.005430000000    -0.0112513  
C392     C      0.645170000000     0.255670000000     0.964240000000     0.169809   
C393     C      0.794490000000     0.406910000000     0.988770000000    -0.00666901 
C394     C      0.744280000000     0.403460000000     0.521780000000    -0.0632685  
C395     C      0.779020000000     0.384140000000     0.963790000000    -0.0062284  
C396     C      0.728210000000     0.383550000000     0.495800000000     0.174436   
C397     C      0.724570000000     0.128720000000     0.497380000000    -0.0105398  
C398     C      0.770720000000     0.129970000000     0.535690000000    -0.0604906  
C399     C      0.738250000000     0.158400000000     0.980260000000    -0.00376084 
C400     C      0.782700000000     0.161900000000     0.521020000000     0.165893   
C401     C      0.785120000000     0.031210000000     0.896510000000    -0.0113017  
C402     C      0.743280000000     0.487460000000     0.900780000000    -0.0620937  
C403     C      0.769720000000     0.042800000000     0.865500000000    -0.00442912 
C404     C      0.730030000000     0.496910000000     0.867940000000     0.168167   
C405     C      0.796050000000     0.018730000000     0.648080000000    -0.0108348  
C406     C      0.751900000000     0.477420000000     0.646490000000    -0.0611007  
C407     C      0.781720000000     0.035890000000     0.619190000000    -0.00461126 
C408     C      0.735850000000     0.495700000000     0.618830000000     0.168454   
C409     C      0.972610000000     0.250170000000     0.898710000000    -0.0150314  
C410     C      0.508470000000     0.299080000000     0.897590000000    -0.0612991  
C411     C      0.987670000000     0.238030000000     0.867710000000     0.0137581  
C412     C      0.526650000000     0.285210000000     0.869010000000     0.170597   
C413     C      0.538320000000     0.238750000000     0.614550000000    -0.0124414  
C414     C      0.009260000000     0.292060000000     0.618180000000    -0.0838611  
C415     C      0.528670000000     0.231570000000     0.649370000000    -0.00614579 
C416     C      0.993000000000     0.281280000000     0.648700000000     0.188983   
C417     C      0.619230000000     0.047830000000     0.731050000000    -0.0119277  
C418     C      0.622340000000     0.024350000000     0.785800000000    -0.0620736  
C419     C      0.653910000000     0.535720000000     0.724660000000    -0.00715867 
C420     C      0.651360000000     0.504280000000     0.776730000000     0.171178   
C421     C      0.870600000000     0.010440000000     0.793520000000    -0.00998458 
C422     C      0.870220000000     0.465060000000     0.753760000000    -0.0605838  
C423     C      0.902800000000     0.022150000000     0.780780000000    -0.00520684 
C424     C      0.901350000000     0.478010000000     0.738760000000     0.16969    
C425     C      0.989690000000     0.374020000000     0.740520000000     0.00879745 
C426     C      0.536390000000     0.371420000000     0.778920000000    -0.0617416  
C427     C      0.006940000000     0.400970000000     0.722120000000    -0.0257423  
C428     C      0.552190000000     0.399910000000     0.761620000000     0.170983   
C429     C      0.971540000000     0.119690000000     0.751370000000    -0.013941   
C430     C      0.509180000000     0.119800000000     0.797850000000    -0.0608847  
C431     C      0.988710000000     0.148910000000     0.737130000000     0.0139555  
C432     C      0.528410000000     0.147700000000     0.782970000000     0.168583   
C433     C      0.999890000000     0.569730000000     0.267360000000     0.484102   
C434     C      0.022840000000     0.950940000000     0.249280000000     0.491959   
C435     C      0.952060000000     0.999190000000     0.260720000000     0.490652   
C436     C      0.571150000000     0.022780000000     0.256780000000     0.473301   
C437     C      0.012290000000     0.821660000000     0.257470000000     0.470169   
C438     C      0.008430000000     0.699380000000     0.260340000000     0.481161   
C439     C      0.513400000000     0.758910000000     0.198550000000     0.490909   
C440     C      0.506910000000     0.762370000000     0.318480000000     0.496069   
C441     C      0.821500000000     0.997320000000     0.263960000000     0.472448   
C442     C      0.702500000000     0.016890000000     0.251640000000     0.488425   
C443     C      0.756520000000     0.512450000000     0.316980000000     0.489262   
C444     C      0.767940000000     0.502640000000     0.197340000000     0.470968   
C445     C      0.760310000000     0.515870000000     0.068580000000     0.487774   
C446     C      0.760570000000     0.517500000000     0.448130000000     0.470527   
C447     C      0.754230000000     0.578670000000     0.510380000000     0.469792   
C448     C      0.766490000000     0.956630000000     0.507260000000     0.472995   
C449     C      0.513330000000     0.763900000000     0.067090000000     0.471208   
C450     C      0.498660000000     0.770000000000     0.447740000000     0.473313   
C451     C      0.566240000000     0.767150000000     0.500900000000     0.472353   
C452     C      0.945620000000     0.765270000000     0.513630000000     0.470388   
C453     C      0.757750000000     0.711110000000     0.498460000000     0.485304   
C454     C      0.756510000000     0.832670000000     0.483000000000     0.492954   
C455     C      0.697050000000     0.771970000000     0.988520000000     0.499289   
C456     C      0.818120000000     0.773420000000     0.993040000000     0.495272   
C457     C      0.894780000000     0.736860000000     0.502440000000    -0.0120624  
C458     C      0.894610000000     0.790730000000     0.030570000000    -0.0599271  
C459     C      0.869960000000     0.749590000000     0.478640000000    -0.00341846 
C460     C      0.867980000000     0.802650000000     0.008280000000     0.162202   
C461     C      0.617550000000     0.787590000000     0.020940000000    -0.0129369  
C462     C      0.615760000000     0.741550000000     0.981360000000    -0.0608724  
C463     C      0.648300000000     0.799880000000     0.505430000000    -0.0044107  
C464     C      0.645170000000     0.755670000000     0.464240000000     0.169431   
C465     C      0.794490000000     0.906910000000     0.488770000000    -0.0139468  
C466     C      0.744280000000     0.903460000000     0.021770000000    -0.0678669  
C467     C      0.779020000000     0.884140000000     0.463780000000    -0.00515887 
C468     C      0.728210000000     0.883550000000     0.995800000000     0.18181    
C469     C      0.724570000000     0.628720000000     0.997380000000    -0.00340017 
C470     C      0.770720000000     0.629970000000     0.035690000000    -0.0606085  
C471     C      0.738250000000     0.658400000000     0.480260000000    -0.00519375 
C472     C      0.782700000000     0.661900000000     0.021020000000     0.16587    
C473     C      0.785120000000     0.531210000000     0.396520000000    -0.0112029  
C474     C      0.743280000000     0.987450000000     0.400780000000    -0.0621654  
C475     C      0.769720000000     0.542800000000     0.365500000000    -0.00445952 
C476     C      0.730030000000     0.996910000000     0.367940000000     0.168459   
C477     C      0.796050000000     0.518730000000     0.148080000000    -0.010806   
C478     C      0.751900000000     0.977420000000     0.146490000000    -0.0610477  
C479     C      0.781720000000     0.535890000000     0.119190000000    -0.00463327 
C480     C      0.735850000000     0.995700000000     0.118830000000     0.168636   
C481     C      0.972610000000     0.750170000000     0.398710000000    -0.0149647  
C482     C      0.508470000000     0.799080000000     0.397590000000    -0.0611845  
C483     C      0.987670000000     0.738030000000     0.367710000000     0.0138184  
C484     C      0.526650000000     0.785210000000     0.369010000000     0.170531   
C485     C      0.538320000000     0.738760000000     0.114550000000    -0.0123404  
C486     C      0.009260000000     0.792060000000     0.118180000000    -0.0838654  
C487     C      0.528670000000     0.731570000000     0.149370000000    -0.0061822  
C488     C      0.993000000000     0.781280000000     0.148700000000     0.189      
C489     C      0.619230000000     0.547830000000     0.231050000000    -0.0119034  
C490     C      0.622340000000     0.524350000000     0.285800000000    -0.0620737  
C491     C      0.653910000000     0.035720000000     0.224660000000    -0.00714505 
C492     C      0.651360000000     0.004280000000     0.276730000000     0.170805   
C493     C      0.870600000000     0.510440000000     0.293520000000    -0.00975547 
C494     C      0.870220000000     0.965060000000     0.253760000000    -0.0605499  
C495     C      0.902800000000     0.522150000000     0.280780000000    -0.00515159 
C496     C      0.901350000000     0.978010000000     0.238760000000     0.169665   
C497     C      0.989690000000     0.874020000000     0.240520000000     0.00880763 
C498     C      0.536390000000     0.871420000000     0.278920000000    -0.06167    
C499     C      0.006940000000     0.900970000000     0.222130000000    -0.0256658  
C500     C      0.552190000000     0.899910000000     0.261620000000     0.170964   
C501     C      0.971540000000     0.619690000000     0.251370000000    -0.0139439  
C502     C      0.509180000000     0.619800000000     0.297840000000    -0.0608571  
C503     C      0.988710000000     0.648910000000     0.237130000000     0.0140076  
C504     C      0.528410000000     0.647700000000     0.282980000000     0.16859    
C505     C      0.999890000000     0.569730000000     0.767360000000     0.484057   
C506     C      0.022840000000     0.950940000000     0.749280000000     0.491944   
C507     C      0.952060000000     0.999190000000     0.760720000000     0.490658   
C508     C      0.571150000000     0.022780000000     0.756780000000     0.473285   
C509     C      0.012290000000     0.821660000000     0.757470000000     0.470193   
C510     C      0.008430000000     0.699380000000     0.760340000000     0.481192   
C511     C      0.513400000000     0.758910000000     0.698550000000     0.490902   
C512     C      0.506910000000     0.762370000000     0.818480000000     0.496073   
C513     C      0.821500000000     0.997320000000     0.763960000000     0.472445   
C514     C      0.702500000000     0.016890000000     0.751640000000     0.488427   
C515     C      0.756520000000     0.512450000000     0.816980000000     0.489264   
C516     C      0.767940000000     0.502640000000     0.697340000000     0.47096    
C517     C      0.760310000000     0.515870000000     0.568590000000     0.48801    
C518     C      0.760570000000     0.517500000000     0.948130000000     0.470075   
C519     C      0.754230000000     0.578670000000     0.010380000000     0.469218   
C520     C      0.766490000000     0.956630000000     0.007260000000     0.472299   
C521     C      0.513330000000     0.763900000000     0.567090000000     0.471668   
C522     C      0.498660000000     0.770000000000     0.947750000000     0.472514   
C523     C      0.566240000000     0.767150000000     0.000900000000     0.463561   
C524     C      0.945620000000     0.765270000000     0.013630000000     0.469148   
C525     C      0.757750000000     0.711110000000     0.998460000000     0.493286   
C526     C      0.756510000000     0.832670000000     0.982990000000     0.498048   
C527     C      0.697050000000     0.771970000000     0.488520000000     0.495004   
C528     C      0.818120000000     0.773420000000     0.493040000000     0.490755   
C529     C      0.894780000000     0.736860000000     0.002440000000    -0.0204562  
C530     C      0.894610000000     0.790730000000     0.530570000000    -0.0610439  
C531     C      0.869960000000     0.749590000000     0.978640000000     0.00172149 
C532     C      0.867980000000     0.802650000000     0.508280000000     0.168644   
C533     C      0.617550000000     0.787590000000     0.520940000000    -0.0114676  
C534     C      0.615760000000     0.741550000000     0.481360000000    -0.0606196  
C535     C      0.648300000000     0.799880000000     0.005430000000    -0.0112819  
C536     C      0.645170000000     0.755670000000     0.964240000000     0.169783   
C537     C      0.794490000000     0.906910000000     0.988770000000    -0.00668932 
C538     C      0.744280000000     0.903460000000     0.521780000000    -0.0633109  
C539     C      0.779020000000     0.884140000000     0.963790000000    -0.00622088 
C540     C      0.728210000000     0.883550000000     0.495800000000     0.174562   
C541     C      0.724570000000     0.628720000000     0.497380000000    -0.0105435  
C542     C      0.770720000000     0.629970000000     0.535690000000    -0.0604907  
C543     C      0.738250000000     0.658400000000     0.980260000000    -0.00374667 
C544     C      0.782700000000     0.661900000000     0.521020000000     0.165898   
C545     C      0.785120000000     0.531210000000     0.896510000000    -0.0112975  
C546     C      0.743280000000     0.987450000000     0.900780000000    -0.0621568  
C547     C      0.769720000000     0.542800000000     0.865500000000    -0.00441161 
C548     C      0.730030000000     0.996910000000     0.867940000000     0.168388   
C549     C      0.796050000000     0.518730000000     0.648080000000    -0.0108229  
C550     C      0.751900000000     0.977420000000     0.646490000000    -0.061066   
C551     C      0.781720000000     0.535890000000     0.619190000000    -0.00460935 
C552     C      0.735850000000     0.995700000000     0.618830000000     0.168662   
C553     C      0.972610000000     0.750170000000     0.898710000000    -0.0150319  
C554     C      0.508470000000     0.799080000000     0.897590000000    -0.0612915  
C555     C      0.987670000000     0.738030000000     0.867710000000     0.0137592  
C556     C      0.526650000000     0.785210000000     0.869010000000     0.170593   
C557     C      0.538320000000     0.738760000000     0.614550000000    -0.0123433  
C558     C      0.009260000000     0.792060000000     0.618180000000    -0.0838433  
C559     C      0.528670000000     0.731570000000     0.649370000000    -0.0061824  
C560     C      0.993000000000     0.781280000000     0.648700000000     0.188975   
C561     C      0.619230000000     0.547830000000     0.731050000000    -0.0119204  
C562     C      0.622340000000     0.524350000000     0.785800000000    -0.0621451  
C563     C      0.653910000000     0.035720000000     0.724660000000    -0.00714716 
C564     C      0.651360000000     0.004280000000     0.776730000000     0.170919   
C565     C      0.870600000000     0.510440000000     0.793520000000    -0.00976572 
C566     C      0.870220000000     0.965060000000     0.753760000000    -0.0605847  
C567     C      0.902800000000     0.522150000000     0.780780000000    -0.00518437 
C568     C      0.901350000000     0.978010000000     0.738760000000     0.169728   
C569     C      0.989690000000     0.874020000000     0.740520000000     0.0087947  
C570     C      0.536390000000     0.871420000000     0.778920000000    -0.061751   
C571     C      0.006940000000     0.900970000000     0.722120000000    -0.0257413  
C572     C      0.552190000000     0.899910000000     0.761620000000     0.170981   
C573     C      0.971540000000     0.619690000000     0.751370000000    -0.013942   
C574     C      0.509180000000     0.619800000000     0.797850000000    -0.0609117  
C575     C      0.988710000000     0.648910000000     0.737130000000     0.0139552  
C576     C      0.528410000000     0.647700000000     0.782970000000     0.168589   
H1       H      0.382770000000     0.260160000000     0.457880000000     0.0359877  
H2       H      0.410450000000     0.218940000000     0.490200000000     0.0376809  
H3       H      0.379690000000     0.316120000000     0.988390000000     0.0035929  
H4       H      0.410120000000     0.311430000000     0.037670000000     0.0520197  
H5       H      0.354870000000     0.229060000000     0.470160000000     0.034493   
H6       H      0.381950000000     0.224290000000     0.522090000000     0.0398788  
H7       H      0.383180000000     0.281100000000     0.052540000000     0.0591005  
H8       H      0.357700000000     0.345040000000     0.025760000000     0.133289   
H9       H      0.141770000000     0.319660000000     0.488650000000     0.0373747  
H10      H      0.103460000000     0.308610000000     0.029870000000     0.0389087  
H11      H      0.136770000000     0.272700000000     0.445370000000     0.0014234  
H12      H      0.099790000000     0.229860000000     0.463490000000     0.0516258  
H13      H      0.164060000000     0.310620000000     0.024010000000     0.0471513  
H14      H      0.124300000000     0.272730000000     0.041980000000     0.037943   
H15      H      0.123850000000     0.222620000000     0.998430000000     0.0615312  
H16      H      0.152360000000     0.224530000000     0.430300000000     0.137208   
H17      H      0.268640000000     0.399360000000     0.444520000000     0.0360113  
H18      H      0.310780000000     0.424240000000     0.476530000000     0.0385254  
H19      H      0.216770000000     0.400640000000     0.978610000000     0.000632142
H20      H      0.226060000000     0.417900000000     0.034940000000     0.0625157  
H21      H      0.297780000000     0.368230000000     0.453240000000     0.0356972  
H22      H      0.309020000000     0.391870000000     0.505330000000     0.041636   
H23      H      0.255690000000     0.386610000000     0.039070000000     0.0668009  
H24      H      0.185380000000     0.376450000000     0.012720000000     0.134221   
H25      H      0.253930000000     0.150070000000     0.460460000000     0.0389981  
H26      H      0.211920000000     0.113100000000     0.479820000000     0.0380672  
H27      H      0.302430000000     0.155820000000     0.504090000000    -0.00165069 
H28      H      0.291540000000     0.115650000000     0.044430000000     0.0513831  
H29      H      0.218090000000     0.172560000000     0.469810000000     0.0428862  
H30      H      0.206960000000     0.137000000000     0.015530000000     0.0374165  
H31      H      0.255720000000     0.135950000000     0.056780000000     0.0574795  
H32      H      0.316620000000     0.174450000000     0.050310000000     0.134159   
H33      H      0.251520000000     0.061650000000     0.371180000000     0.0382589  
H34      H      0.295260000000     0.052420000000     0.409410000000     0.0363371  
H35      H      0.209020000000     0.513170000000     0.371870000000     0.00457475 
H36      H      0.223230000000     0.478740000000     0.416020000000     0.0529942  
H37      H      0.288620000000     0.054060000000     0.350400000000     0.0353039  
H38      H      0.305050000000     0.014290000000     0.390730000000     0.0391769  
H39      H      0.260030000000     0.466710000000     0.397630000000     0.0571665  
H40      H      0.199050000000     0.462380000000     0.361190000000     0.134556   
H41      H      0.267370000000     0.056790000000     0.127930000000     0.0344112  
H42      H      0.308230000000     0.036730000000     0.163630000000     0.0384404  
H43      H      0.218170000000     0.013240000000     0.128890000000     0.000426706
H44      H      0.233060000000     0.465570000000     0.161210000000     0.0530088  
H45      H      0.301410000000     0.045890000000     0.104250000000     0.0357848  
H46      H      0.314670000000     0.501590000000     0.139370000000     0.0366093  
H47      H      0.267760000000     0.458250000000     0.136530000000     0.0594091  
H48      H      0.199240000000     0.468260000000     0.109130000000     0.13583    
H49      H      0.005060000000     0.218560000000     0.373770000000     0.0291205  
H50      H      0.465320000000     0.229140000000     0.413610000000     0.0380178  
H51      H      0.047190000000     0.270380000000     0.377850000000     0.00149698 
H52      H      0.025280000000     0.313780000000     0.412260000000     0.055849   
H53      H      0.468770000000     0.226880000000     0.352530000000     0.0384231  
H54      H      0.450430000000     0.263720000000     0.392500000000     0.0365049  
H55      H      0.488970000000     0.315200000000     0.388840000000     0.0603521  
H56      H      0.058110000000     0.318730000000     0.359890000000     0.137881   
H57      H      0.510390000000     0.211940000000     0.149070000000     0.030982   
H58      H      0.038450000000     0.215750000000     0.100760000000     0.0385059  
H59      H      0.470740000000     0.267540000000     0.142680000000     0.00268251 
H60      H      0.492590000000     0.308530000000     0.105280000000     0.0558009  
H61      H      0.049750000000     0.221820000000     0.162490000000     0.0356257  
H62      H      0.063390000000     0.247940000000     0.114630000000     0.0356789  
H63      H      0.031370000000     0.305900000000     0.124140000000     0.0634789  
H64      H      0.464540000000     0.317150000000     0.159030000000     0.137238   
H65      H      0.152680000000     0.516440000000     0.206210000000     0.0319715  
H66      H      0.105170000000     0.046690000000     0.208590000000     0.0395071  
H67      H      0.143210000000     0.480930000000     0.265990000000     0.00748337 
H68      H      0.109030000000     0.511380000000     0.304850000000     0.0605549  
H69      H      0.168370000000     0.055730000000     0.214190000000     0.0356874  
H70      H      0.120640000000     0.073800000000     0.237960000000     0.0349352  
H71      H      0.130550000000     0.047970000000     0.295680000000     0.0587673  
H72      H      0.160080000000     0.479140000000     0.314910000000     0.140358   
H73      H      0.398320000000     0.043080000000     0.264700000000     0.0338163  
H74      H      0.356490000000     0.031460000000     0.302420000000     0.0365043  
H75      H      0.395000000000     0.994560000000     0.218710000000     0.00193919 
H76      H      0.355280000000     0.453420000000     0.235010000000     0.0512458  
H77      H      0.417610000000     0.031230000000     0.300940000000     0.0356498  
H78      H      0.375330000000     0.494260000000     0.314170000000     0.0371389  
H79      H      0.376400000000     0.446490000000     0.271950000000     0.06086    
H80      H      0.410640000000     0.445600000000     0.206500000000     0.137422   
H81      H      0.521850000000     0.389700000000     0.203170000000     0.0408498  
H82      H      0.475600000000     0.358960000000     0.223550000000     0.0450665  
H83      H      0.069050000000     0.389620000000     0.243640000000     0.00160585 
H84      H      0.055200000000     0.354800000000     0.288240000000     0.0590769  
H85      H      0.488800000000     0.417000000000     0.210700000000     0.0422457  
H86      H      0.472820000000     0.385290000000     0.257780000000     0.047311   
H87      H      0.023000000000     0.381100000000     0.299760000000     0.0631854  
H88      H      0.089830000000     0.408030000000     0.287730000000     0.135857   
H89      H      0.505590000000     0.139950000000     0.218620000000     0.0341814  
H90      H      0.461490000000     0.104350000000     0.232010000000     0.0370419  
H91      H      0.048350000000     0.137270000000     0.268520000000    -0.00018885 
H92      H      0.025590000000     0.104330000000     0.312190000000     0.0553253  
H93      H      0.470940000000     0.164770000000     0.224980000000     0.0362395  
H94      H      0.451090000000     0.128800000000     0.265830000000     0.0355295  
H95      H      0.990630000000     0.130130000000     0.313940000000     0.0673476  
H96      H      0.060560000000     0.156560000000     0.315330000000     0.137666   
H97      H      0.382770000000     0.260160000000     0.957880000000     0.0354644  
H98      H      0.410450000000     0.218940000000     0.990200000000     0.0423203  
H99      H      0.379690000000     0.316120000000     0.488390000000    -0.000423313
H100     H      0.410120000000     0.311430000000     0.537670000000     0.0526417  
H101     H      0.354870000000     0.229060000000     0.970160000000     0.0340725  
H102     H      0.381950000000     0.224290000000     0.022090000000     0.04086    
H103     H      0.383180000000     0.281100000000     0.552550000000     0.0593636  
H104     H      0.357700000000     0.345040000000     0.525760000000     0.134165   
H105     H      0.141770000000     0.319660000000     0.988650000000     0.0414577  
H106     H      0.103460000000     0.308610000000     0.529870000000     0.0391282  
H107     H      0.136770000000     0.272700000000     0.945360000000     0.00166997 
H108     H      0.099790000000     0.229860000000     0.963490000000     0.0521851  
H109     H      0.164060000000     0.310620000000     0.524010000000     0.0462044  
H110     H      0.124300000000     0.272730000000     0.541980000000     0.0382033  
H111     H      0.123850000000     0.222620000000     0.498430000000     0.0602183  
H112     H      0.152360000000     0.224530000000     0.930300000000     0.137335   
H113     H      0.268640000000     0.399360000000     0.944520000000     0.0364888  
H114     H      0.310780000000     0.424240000000     0.976530000000     0.0382318  
H115     H      0.216770000000     0.400640000000     0.478610000000     0.00101287 
H116     H      0.226060000000     0.417900000000     0.534940000000     0.0618852  
H117     H      0.297780000000     0.368230000000     0.953240000000     0.0364041  
H118     H      0.309020000000     0.391870000000     0.005330000000     0.0377342  
H119     H      0.255690000000     0.386610000000     0.539070000000     0.066209   
H120     H      0.185380000000     0.376450000000     0.512720000000     0.134415   
H121     H      0.253930000000     0.150070000000     0.960460000000     0.0394306  
H122     H      0.211920000000     0.113100000000     0.979820000000     0.0377031  
H123     H      0.302430000000     0.155820000000     0.004090000000    -0.00284965 
H124     H      0.291540000000     0.115650000000     0.544430000000     0.051536   
H125     H      0.218090000000     0.172560000000     0.969810000000     0.0431305  
H126     H      0.206960000000     0.137000000000     0.515520000000     0.0412721  
H127     H      0.255720000000     0.135950000000     0.556780000000     0.0576239  
H128     H      0.316620000000     0.174450000000     0.550310000000     0.134424   
H129     H      0.251520000000     0.061650000000     0.871180000000     0.0384104  
H130     H      0.295260000000     0.052420000000     0.909410000000     0.0367832  
H131     H      0.209020000000     0.513170000000     0.871870000000     0.00476538 
H132     H      0.223230000000     0.478740000000     0.916030000000     0.0533996  
H133     H      0.288620000000     0.054060000000     0.850400000000     0.0353875  
H134     H      0.305050000000     0.014290000000     0.890730000000     0.0394511  
H135     H      0.260030000000     0.466710000000     0.897630000000     0.057362   
H136     H      0.199050000000     0.462380000000     0.861190000000     0.13465    
H137     H      0.267370000000     0.056790000000     0.627930000000     0.0344346  
H138     H      0.308230000000     0.036730000000     0.663630000000     0.0384731  
H139     H      0.218170000000     0.013240000000     0.628890000000     0.000482481
H140     H      0.233060000000     0.465570000000     0.661210000000     0.0530212  
H141     H      0.301410000000     0.045890000000     0.604250000000     0.0358648  
H142     H      0.314670000000     0.501590000000     0.639370000000     0.0366784  
H143     H      0.267760000000     0.458250000000     0.636530000000     0.0594291  
H144     H      0.199240000000     0.468260000000     0.609130000000     0.135953   
H145     H      0.005060000000     0.218560000000     0.873770000000     0.0293195  
H146     H      0.465320000000     0.229140000000     0.913610000000     0.0384076  
H147     H      0.047190000000     0.270380000000     0.877850000000     0.00162192 
H148     H      0.025280000000     0.313780000000     0.912260000000     0.056277   
H149     H      0.468770000000     0.226880000000     0.852530000000     0.0385052  
H150     H      0.450430000000     0.263720000000     0.892500000000     0.0367427  
H151     H      0.488970000000     0.315200000000     0.888840000000     0.0606147  
H152     H      0.058110000000     0.318730000000     0.859890000000     0.138037   
H153     H      0.510390000000     0.211940000000     0.649070000000     0.0310501  
H154     H      0.038450000000     0.215750000000     0.600760000000     0.0387582  
H155     H      0.470740000000     0.267540000000     0.642680000000     0.00269652 
H156     H      0.492590000000     0.308530000000     0.605280000000     0.0558832  
H157     H      0.049750000000     0.221820000000     0.662490000000     0.0356777  
H158     H      0.063390000000     0.247940000000     0.614630000000     0.0358109  
H159     H      0.031370000000     0.305900000000     0.624140000000     0.0635507  
H160     H      0.464540000000     0.317150000000     0.659030000000     0.137268   
H161     H      0.152680000000     0.516440000000     0.706210000000     0.0320098  
H162     H      0.105170000000     0.046690000000     0.708590000000     0.0395772  
H163     H      0.143210000000     0.480930000000     0.765990000000     0.00747381 
H164     H      0.109030000000     0.511380000000     0.804850000000     0.0606853  
H165     H      0.168370000000     0.055730000000     0.714190000000     0.0357178  
H166     H      0.120640000000     0.073800000000     0.737960000000     0.0349693  
H167     H      0.130550000000     0.047970000000     0.795680000000     0.0588596  
H168     H      0.160080000000     0.479140000000     0.814910000000     0.1404     
H169     H      0.398320000000     0.043080000000     0.764700000000     0.033854   
H170     H      0.356490000000     0.031460000000     0.802420000000     0.0365818  
H171     H      0.395000000000     0.994560000000     0.718710000000     0.00195966 
H172     H      0.355280000000     0.453420000000     0.735010000000     0.0512591  
H173     H      0.417610000000     0.031230000000     0.800940000000     0.0357744  
H174     H      0.375330000000     0.494260000000     0.814170000000     0.0372743  
H175     H      0.376400000000     0.446490000000     0.771950000000     0.0609088  
H176     H      0.410640000000     0.445600000000     0.706500000000     0.137467   
H177     H      0.521850000000     0.389700000000     0.703170000000     0.0409296  
H178     H      0.475600000000     0.358960000000     0.723550000000     0.0450694  
H179     H      0.069050000000     0.389620000000     0.743640000000     0.00161348 
H180     H      0.055200000000     0.354800000000     0.788240000000     0.0591316  
H181     H      0.488800000000     0.417000000000     0.710700000000     0.0423246  
H182     H      0.472820000000     0.385290000000     0.757780000000     0.0473347  
H183     H      0.023000000000     0.381100000000     0.799750000000     0.0633201  
H184     H      0.089830000000     0.408030000000     0.787730000000     0.135908   
H185     H      0.505590000000     0.139950000000     0.718620000000     0.0342248  
H186     H      0.461490000000     0.104350000000     0.732010000000     0.0370821  
H187     H      0.048350000000     0.137270000000     0.768520000000    -0.000185938
H188     H      0.025590000000     0.104330000000     0.812190000000     0.055481   
H189     H      0.470940000000     0.164770000000     0.724980000000     0.0362652  
H190     H      0.451090000000     0.128800000000     0.765830000000     0.0355745  
H191     H      0.990630000000     0.130130000000     0.813950000000     0.0674559  
H192     H      0.060560000000     0.156560000000     0.815330000000     0.137754   
H193     H      0.382770000000     0.760160000000     0.457880000000     0.0359905  
H194     H      0.410450000000     0.718950000000     0.490200000000     0.0376981  
H195     H      0.379690000000     0.816120000000     0.988390000000     0.0036061  
H196     H      0.410120000000     0.811430000000     0.037670000000     0.0520196  
H197     H      0.354870000000     0.729060000000     0.470160000000     0.034485   
H198     H      0.381950000000     0.724290000000     0.522090000000     0.0398823  
H199     H      0.383180000000     0.781100000000     0.052540000000     0.0590976  
H200     H      0.357700000000     0.845040000000     0.025760000000     0.133407   
H201     H      0.141770000000     0.819660000000     0.488650000000     0.0373819  
H202     H      0.103460000000     0.808610000000     0.029870000000     0.0388876  
H203     H      0.136770000000     0.772700000000     0.445370000000     0.00143391 
H204     H      0.099790000000     0.729870000000     0.463490000000     0.0516065  
H205     H      0.164060000000     0.810620000000     0.024010000000     0.0471579  
H206     H      0.124300000000     0.772730000000     0.041980000000     0.0379251  
H207     H      0.123850000000     0.722620000000     0.998430000000     0.0614974  
H208     H      0.152360000000     0.724520000000     0.430300000000     0.137178   
H209     H      0.268640000000     0.899360000000     0.444520000000     0.0360163  
H210     H      0.310780000000     0.924230000000     0.476530000000     0.0385437  
H211     H      0.216770000000     0.900640000000     0.978610000000     0.000612586
H212     H      0.226060000000     0.917900000000     0.034940000000     0.0625385  
H213     H      0.297780000000     0.868230000000     0.453240000000     0.0357036  
H214     H      0.309020000000     0.891870000000     0.505330000000     0.0416493  
H215     H      0.255690000000     0.886610000000     0.039070000000     0.0668172  
H216     H      0.185380000000     0.876450000000     0.012720000000     0.134328   
H217     H      0.253930000000     0.650070000000     0.460460000000     0.0389933  
H218     H      0.211920000000     0.613100000000     0.479820000000     0.0380706  
H219     H      0.302430000000     0.655820000000     0.504090000000    -0.00165372 
H220     H      0.291540000000     0.615650000000     0.044430000000     0.0513843  
H221     H      0.218090000000     0.672560000000     0.469810000000     0.0428774  
H222     H      0.206960000000     0.637000000000     0.015530000000     0.0374186  
H223     H      0.255720000000     0.635950000000     0.056780000000     0.0574792  
H224     H      0.316620000000     0.674450000000     0.050310000000     0.134159   
H225     H      0.251520000000     0.561650000000     0.371180000000     0.0382582  
H226     H      0.295260000000     0.552420000000     0.409410000000     0.0363402  
H227     H      0.209020000000     0.013170000000     0.371870000000     0.00445161 
H228     H      0.223230000000     0.978740000000     0.416020000000     0.0530584  
H229     H      0.288620000000     0.554060000000     0.350400000000     0.0353004  
H230     H      0.305050000000     0.514290000000     0.390730000000     0.0392074  
H231     H      0.260030000000     0.966710000000     0.397630000000     0.0572257  
H232     H      0.199050000000     0.962380000000     0.361190000000     0.134583   
H233     H      0.267370000000     0.556790000000     0.127930000000     0.0344134  
H234     H      0.308230000000     0.536730000000     0.163630000000     0.0384462  
H235     H      0.218170000000     0.513240000000     0.128890000000     0.000540433
H236     H      0.233060000000     0.965570000000     0.161210000000     0.0530262  
H237     H      0.301410000000     0.545890000000     0.104250000000     0.0357903  
H238     H      0.314670000000     0.001590000000     0.139370000000     0.0365756  
H239     H      0.267760000000     0.958250000000     0.136530000000     0.0594263  
H240     H      0.199240000000     0.968260000000     0.109130000000     0.135861   
H241     H      0.005060000000     0.718560000000     0.373770000000     0.0291237  
H242     H      0.465320000000     0.729140000000     0.413610000000     0.0380178  
H243     H      0.047190000000     0.770380000000     0.377850000000     0.00149861 
H244     H      0.025280000000     0.813780000000     0.412260000000     0.0558519  
H245     H      0.468770000000     0.726880000000     0.352530000000     0.0384248  
H246     H      0.450430000000     0.763730000000     0.392500000000     0.0365071  
H247     H      0.488970000000     0.815200000000     0.388840000000     0.0603527  
H248     H      0.058110000000     0.818730000000     0.359890000000     0.137884   
H249     H      0.510390000000     0.711940000000     0.149070000000     0.0309936  
H250     H      0.038450000000     0.715750000000     0.100760000000     0.0384721  
H251     H      0.470740000000     0.767540000000     0.142680000000     0.00268428 
H252     H      0.492590000000     0.808530000000     0.105280000000     0.0557927  
H253     H      0.049750000000     0.721820000000     0.162490000000     0.0356344  
H254     H      0.063390000000     0.747940000000     0.114630000000     0.0356493  
H255     H      0.031370000000     0.805900000000     0.124140000000     0.0634728  
H256     H      0.464540000000     0.817150000000     0.159030000000     0.13724    
H257     H      0.152680000000     0.016440000000     0.206210000000     0.0319427  
H258     H      0.105170000000     0.546690000000     0.208590000000     0.0395158  
H259     H      0.143210000000     0.980930000000     0.265990000000     0.00761764 
H260     H      0.109030000000     0.011380000000     0.304850000000     0.0605064  
H261     H      0.168370000000     0.555720000000     0.214190000000     0.0356973  
H262     H      0.120640000000     0.573800000000     0.237960000000     0.0349341  
H263     H      0.130550000000     0.547970000000     0.295680000000     0.0587914  
H264     H      0.160080000000     0.979140000000     0.314910000000     0.140351   
H265     H      0.398320000000     0.543080000000     0.264700000000     0.033831   
H266     H      0.356490000000     0.531460000000     0.302420000000     0.0364758  
H267     H      0.395000000000     0.494570000000     0.218710000000     0.00192277 
H268     H      0.355280000000     0.953420000000     0.235010000000     0.0512557  
H269     H      0.417610000000     0.531230000000     0.300940000000     0.0356703  
H270     H      0.375330000000     0.994260000000     0.314170000000     0.0372676  
H271     H      0.376400000000     0.946490000000     0.271950000000     0.0608686  
H272     H      0.410640000000     0.945600000000     0.206500000000     0.137437   
H273     H      0.521850000000     0.889700000000     0.203170000000     0.0408544  
H274     H      0.475600000000     0.858960000000     0.223550000000     0.0450617  
H275     H      0.069050000000     0.889620000000     0.243640000000     0.00161031 
H276     H      0.055200000000     0.854800000000     0.288240000000     0.0590722  
H277     H      0.488800000000     0.917000000000     0.210700000000     0.0422564  
H278     H      0.472820000000     0.885290000000     0.257780000000     0.0473127  
H279     H      0.023000000000     0.881100000000     0.299760000000     0.0631877  
H280     H      0.089830000000     0.908030000000     0.287730000000     0.135862   
H281     H      0.505590000000     0.639950000000     0.218620000000     0.0341838  
H282     H      0.461490000000     0.604350000000     0.232010000000     0.0370471  
H283     H      0.048350000000     0.637270000000     0.268520000000    -0.000190053
H284     H      0.025590000000     0.604340000000     0.312190000000     0.0553411  
H285     H      0.470940000000     0.664770000000     0.224980000000     0.0362438  
H286     H      0.451090000000     0.628800000000     0.265830000000     0.0355319  
H287     H      0.990630000000     0.630130000000     0.313940000000     0.0673567  
H288     H      0.060560000000     0.656560000000     0.315330000000     0.137667   
H289     H      0.382770000000     0.760160000000     0.957880000000     0.0354669  
H290     H      0.410450000000     0.718950000000     0.990200000000     0.0423395  
H291     H      0.379690000000     0.816120000000     0.488390000000    -0.000409558
H292     H      0.410120000000     0.811430000000     0.537670000000     0.0526414  
H293     H      0.354870000000     0.729060000000     0.970160000000     0.0340642  
H294     H      0.381950000000     0.724290000000     0.022090000000     0.0408644  
H295     H      0.383180000000     0.781100000000     0.552550000000     0.0593605  
H296     H      0.357700000000     0.845040000000     0.525760000000     0.134283   
H297     H      0.141770000000     0.819660000000     0.988650000000     0.0414642  
H298     H      0.103460000000     0.808610000000     0.529870000000     0.0391067  
H299     H      0.136770000000     0.772700000000     0.945360000000     0.00168042 
H300     H      0.099790000000     0.729870000000     0.963490000000     0.0521658  
H301     H      0.164060000000     0.810620000000     0.524010000000     0.0462114  
H302     H      0.124300000000     0.772730000000     0.541980000000     0.0381844  
H303     H      0.123850000000     0.722620000000     0.498430000000     0.0601846  
H304     H      0.152360000000     0.724520000000     0.930300000000     0.137305   
H305     H      0.268640000000     0.899360000000     0.944520000000     0.0364937  
H306     H      0.310780000000     0.924230000000     0.976530000000     0.0382488  
H307     H      0.216770000000     0.900640000000     0.478610000000     0.000993719
H308     H      0.226060000000     0.917900000000     0.534940000000     0.0619079  
H309     H      0.297780000000     0.868230000000     0.953240000000     0.0364104  
H310     H      0.309020000000     0.891870000000     0.005330000000     0.0377479  
H311     H      0.255690000000     0.886610000000     0.539070000000     0.0662253  
H312     H      0.185380000000     0.876450000000     0.512720000000     0.134521   
H313     H      0.253930000000     0.650070000000     0.960460000000     0.0394257  
H314     H      0.211920000000     0.613100000000     0.979820000000     0.0377065  
H315     H      0.302430000000     0.655820000000     0.004090000000    -0.00285264 
H316     H      0.291540000000     0.615650000000     0.544430000000     0.0515372  
H317     H      0.218090000000     0.672560000000     0.969810000000     0.0431216  
H318     H      0.206960000000     0.637000000000     0.515520000000     0.0412739  
H319     H      0.255720000000     0.635950000000     0.556780000000     0.0576237  
H320     H      0.316620000000     0.674450000000     0.550310000000     0.134424   
H321     H      0.251520000000     0.561650000000     0.871180000000     0.0384096  
H322     H      0.295260000000     0.552420000000     0.909410000000     0.0367863  
H323     H      0.209020000000     0.013170000000     0.871870000000     0.00464297 
H324     H      0.223230000000     0.978740000000     0.916030000000     0.0534635  
H325     H      0.288620000000     0.554060000000     0.850400000000     0.035384   
H326     H      0.305050000000     0.514290000000     0.890730000000     0.0394814  
H327     H      0.260030000000     0.966710000000     0.897630000000     0.0574212  
H328     H      0.199050000000     0.962380000000     0.861190000000     0.134676   
H329     H      0.267370000000     0.556790000000     0.627930000000     0.0344368  
H330     H      0.308230000000     0.536730000000     0.663630000000     0.0384789  
H331     H      0.218170000000     0.513240000000     0.628890000000     0.000596002
H332     H      0.233060000000     0.965570000000     0.661210000000     0.0530385  
H333     H      0.301410000000     0.545890000000     0.604250000000     0.0358703  
H334     H      0.314670000000     0.001590000000     0.639370000000     0.0366448  
H335     H      0.267760000000     0.958250000000     0.636530000000     0.0594462  
H336     H      0.199240000000     0.968260000000     0.609130000000     0.135984   
H337     H      0.005060000000     0.718560000000     0.873770000000     0.0293227  
H338     H      0.465320000000     0.729140000000     0.913610000000     0.0384076  
H339     H      0.047190000000     0.770380000000     0.877850000000     0.00162354 
H340     H      0.025280000000     0.813780000000     0.912260000000     0.0562799  
H341     H      0.468770000000     0.726880000000     0.852530000000     0.0385069  
H342     H      0.450430000000     0.763730000000     0.892500000000     0.0367448  
H343     H      0.488970000000     0.815200000000     0.888840000000     0.0606152  
H344     H      0.058110000000     0.818730000000     0.859890000000     0.13804    
H345     H      0.510390000000     0.711940000000     0.649070000000     0.0310618  
H346     H      0.038450000000     0.715750000000     0.600760000000     0.0387244  
H347     H      0.470740000000     0.767540000000     0.642680000000     0.00269829 
H348     H      0.492590000000     0.808530000000     0.605280000000     0.0558749  
H349     H      0.049750000000     0.721820000000     0.662490000000     0.0356864  
H350     H      0.063390000000     0.747940000000     0.614630000000     0.0357813  
H351     H      0.031370000000     0.805900000000     0.624140000000     0.0635445  
H352     H      0.464540000000     0.817150000000     0.659030000000     0.13727    
H353     H      0.152680000000     0.016440000000     0.706210000000     0.0319811  
H354     H      0.105170000000     0.546690000000     0.708590000000     0.0395859  
H355     H      0.143210000000     0.980930000000     0.765990000000     0.00760754 
H356     H      0.109030000000     0.011380000000     0.804850000000     0.0606369  
H357     H      0.168370000000     0.555720000000     0.714190000000     0.0357277  
H358     H      0.120640000000     0.573800000000     0.737960000000     0.0349682  
H359     H      0.130550000000     0.547970000000     0.795680000000     0.0588836  
H360     H      0.160080000000     0.979140000000     0.814910000000     0.140393   
H361     H      0.398320000000     0.543080000000     0.764700000000     0.0338686  
H362     H      0.356490000000     0.531460000000     0.802420000000     0.0365535  
H363     H      0.395000000000     0.494570000000     0.718710000000     0.00194339 
H364     H      0.355280000000     0.953420000000     0.735010000000     0.051269   
H365     H      0.417610000000     0.531230000000     0.800940000000     0.0357947  
H366     H      0.375330000000     0.994260000000     0.814170000000     0.0374024  
H367     H      0.376400000000     0.946490000000     0.771950000000     0.0609174  
H368     H      0.410640000000     0.945600000000     0.706500000000     0.137482   
H369     H      0.521850000000     0.889700000000     0.703170000000     0.0409341  
H370     H      0.475600000000     0.858960000000     0.723550000000     0.0450646  
H371     H      0.069050000000     0.889620000000     0.743640000000     0.00161792 
H372     H      0.055200000000     0.854800000000     0.788240000000     0.0591268  
H373     H      0.488800000000     0.917000000000     0.710700000000     0.0423352  
H374     H      0.472820000000     0.885290000000     0.757780000000     0.0473365  
H375     H      0.023000000000     0.881100000000     0.799750000000     0.0633223  
H376     H      0.089830000000     0.908030000000     0.787730000000     0.135913   
H377     H      0.505590000000     0.639950000000     0.718620000000     0.0342272  
H378     H      0.461490000000     0.604350000000     0.732010000000     0.0370874  
H379     H      0.048350000000     0.637270000000     0.768520000000    -0.000187144
H380     H      0.025590000000     0.604340000000     0.812190000000     0.0554968  
H381     H      0.470940000000     0.664770000000     0.724980000000     0.0362695  
H382     H      0.451090000000     0.628800000000     0.765830000000     0.0355769  
H383     H      0.990630000000     0.630130000000     0.813950000000     0.067465   
H384     H      0.060560000000     0.656560000000     0.815330000000     0.137755   
H385     H      0.882770000000     0.260160000000     0.457880000000     0.0362838  
H386     H      0.910450000000     0.218940000000     0.490200000000     0.0384829  
H387     H      0.879690000000     0.316120000000     0.988390000000     0.00403077 
H388     H      0.910120000000     0.311430000000     0.037670000000     0.0529365  
H389     H      0.854870000000     0.229060000000     0.470160000000     0.0346875  
H390     H      0.881950000000     0.224290000000     0.522090000000     0.0404359  
H391     H      0.883180000000     0.281100000000     0.052540000000     0.0595895  
H392     H      0.857710000000     0.345040000000     0.025760000000     0.133674   
H393     H      0.641770000000     0.319660000000     0.488650000000     0.0375701  
H394     H      0.603460000000     0.308610000000     0.029870000000     0.0391991  
H395     H      0.636770000000     0.272700000000     0.445370000000     0.00154377 
H396     H      0.599790000000     0.229860000000     0.463490000000     0.0521618  
H397     H      0.664060000000     0.310620000000     0.024010000000     0.0472207  
H398     H      0.624300000000     0.272730000000     0.041980000000     0.0379963  
H399     H      0.623850000000     0.222620000000     0.998430000000     0.0617027  
H400     H      0.652360000000     0.224530000000     0.430300000000     0.137374   
H401     H      0.768640000000     0.399360000000     0.444520000000     0.0360819  
H402     H      0.810780000000     0.424240000000     0.476530000000     0.0388732  
H403     H      0.716770000000     0.400640000000     0.978610000000     0.00071749 
H404     H      0.726060000000     0.417900000000     0.034940000000     0.0626091  
H405     H      0.797780000000     0.368230000000     0.453240000000     0.0358623  
H406     H      0.809020000000     0.391870000000     0.505330000000     0.0418779  
H407     H      0.755690000000     0.386610000000     0.039070000000     0.066861   
H408     H      0.685380000000     0.376450000000     0.012720000000     0.134413   
H409     H      0.753930000000     0.150070000000     0.460460000000     0.0390723  
H410     H      0.711920000000     0.113100000000     0.479820000000     0.038214   
H411     H      0.802430000000     0.155820000000     0.504090000000    -0.00143491 
H412     H      0.791540000000     0.115650000000     0.044430000000     0.051617   
H413     H      0.718090000000     0.172560000000     0.469810000000     0.0429418  
H414     H      0.706960000000     0.137000000000     0.015530000000     0.0375708  
H415     H      0.755720000000     0.135950000000     0.056780000000     0.0575537  
H416     H      0.816620000000     0.174450000000     0.050310000000     0.134497   
H417     H      0.751520000000     0.061650000000     0.371180000000     0.0383212  
H418     H      0.795260000000     0.052420000000     0.409410000000     0.0365727  
H419     H      0.709020000000     0.513170000000     0.371870000000     0.00466169 
H420     H      0.723230000000     0.478740000000     0.416020000000     0.0530996  
H421     H      0.788620000000     0.054060000000     0.350400000000     0.0354303  
H422     H      0.805060000000     0.014290000000     0.390730000000     0.039447   
H423     H      0.760030000000     0.466710000000     0.397630000000     0.0572558  
H424     H      0.699050000000     0.462380000000     0.361190000000     0.134665   
H425     H      0.767370000000     0.056790000000     0.127930000000     0.0344846  
H426     H      0.808230000000     0.036730000000     0.163630000000     0.0386684  
H427     H      0.718170000000     0.013240000000     0.128890000000     0.000508128
H428     H      0.733070000000     0.465570000000     0.161210000000     0.0530927  
H429     H      0.801410000000     0.045890000000     0.104250000000     0.0360693  
H430     H      0.814670000000     0.501590000000     0.139370000000     0.0369276  
H431     H      0.767760000000     0.458250000000     0.136530000000     0.0595155  
H432     H      0.699240000000     0.468260000000     0.109130000000     0.136014   
H433     H      0.505060000000     0.218560000000     0.373770000000     0.0390109  
H434     H      0.965320000000     0.229140000000     0.413610000000     0.0403391  
H435     H      0.547190000000     0.270380000000     0.377850000000     0.00306588 
H436     H      0.525290000000     0.313780000000     0.412260000000     0.0535521  
H437     H      0.968770000000     0.226880000000     0.352530000000     0.0363929  
H438     H      0.950430000000     0.263720000000     0.392500000000     0.0382179  
H439     H      0.988970000000     0.315200000000     0.388840000000     0.0705971  
H440     H      0.558110000000     0.318730000000     0.359890000000     0.137733   
H441     H      0.010390000000     0.211940000000     0.149070000000     0.0286288  
H442     H      0.538450000000     0.215750000000     0.100760000000     0.0390225  
H443     H      0.970740000000     0.267540000000     0.142680000000     0.00126356 
H444     H      0.992590000000     0.308530000000     0.105280000000     0.0668561  
H445     H      0.549760000000     0.221820000000     0.162490000000     0.035925   
H446     H      0.563390000000     0.247940000000     0.114630000000     0.0353802  
H447     H      0.531370000000     0.305900000000     0.124140000000     0.0605571  
H448     H      0.964540000000     0.317150000000     0.159030000000     0.138293   
H449     H      0.652680000000     0.516440000000     0.206210000000     0.0321024  
H450     H      0.605180000000     0.046690000000     0.208590000000     0.0399406  
H451     H      0.643210000000     0.480930000000     0.265990000000     0.00749985 
H452     H      0.609030000000     0.511380000000     0.304850000000     0.0608135  
H453     H      0.668370000000     0.055730000000     0.214190000000     0.0357626  
H454     H      0.620640000000     0.073800000000     0.237960000000     0.035162   
H455     H      0.630550000000     0.047970000000     0.295680000000     0.0589441  
H456     H      0.660080000000     0.479140000000     0.314910000000     0.140463   
H457     H      0.898320000000     0.043080000000     0.264700000000     0.0341899  
H458     H      0.856490000000     0.031460000000     0.302420000000     0.0367115  
H459     H      0.895000000000     0.994560000000     0.218710000000     0.00236937 
H460     H      0.855280000000     0.453420000000     0.235010000000     0.0513823  
H461     H      0.917610000000     0.031230000000     0.300940000000     0.0366179  
H462     H      0.875330000000     0.494260000000     0.314170000000     0.0376476  
H463     H      0.876400000000     0.446490000000     0.271950000000     0.06127    
H464     H      0.910640000000     0.445600000000     0.206500000000     0.137907   
H465     H      0.021850000000     0.389700000000     0.203170000000     0.0433076  
H466     H      0.975600000000     0.358960000000     0.223550000000     0.0429089  
H467     H      0.569050000000     0.389620000000     0.243640000000     0.0014659  
H468     H      0.555200000000     0.354800000000     0.288240000000     0.0592623  
H469     H      0.988800000000     0.417000000000     0.210700000000     0.0531436  
H470     H      0.972820000000     0.385290000000     0.257780000000     0.0457807  
H471     H      0.523000000000     0.381100000000     0.299760000000     0.0652211  
H472     H      0.589830000000     0.408030000000     0.287730000000     0.13598    
H473     H      0.005590000000     0.139950000000     0.218620000000     0.0243743  
H474     H      0.961490000000     0.104350000000     0.232010000000     0.0392689  
H475     H      0.548350000000     0.137270000000     0.268520000000     0.00134586 
H476     H      0.525580000000     0.104330000000     0.312190000000     0.0531395  
H477     H      0.970940000000     0.164770000000     0.224980000000     0.0344344  
H478     H      0.951090000000     0.128800000000     0.265830000000     0.0373246  
H479     H      0.490620000000     0.130130000000     0.313940000000     0.057148   
H480     H      0.560560000000     0.156560000000     0.315330000000     0.137576   
H481     H      0.882770000000     0.260160000000     0.957880000000     0.0357641  
H482     H      0.910450000000     0.218940000000     0.990200000000     0.0430745  
H483     H      0.879690000000     0.316120000000     0.488390000000     5.3507e-05 
H484     H      0.910120000000     0.311430000000     0.537670000000     0.0535532  
H485     H      0.854870000000     0.229060000000     0.970160000000     0.0342708  
H486     H      0.881950000000     0.224290000000     0.022090000000     0.041407   
H487     H      0.883180000000     0.281100000000     0.552550000000     0.0598495  
H488     H      0.857710000000     0.345040000000     0.525760000000     0.134544   
H489     H      0.641770000000     0.319660000000     0.988650000000     0.0416327  
H490     H      0.603460000000     0.308610000000     0.529870000000     0.0394183  
H491     H      0.636770000000     0.272700000000     0.945360000000     0.0017891  
H492     H      0.599790000000     0.229860000000     0.963490000000     0.0527158  
H493     H      0.664060000000     0.310620000000     0.524010000000     0.0462782  
H494     H      0.624300000000     0.272730000000     0.541980000000     0.0382551  
H495     H      0.623850000000     0.222620000000     0.498430000000     0.0603984  
H496     H      0.652360000000     0.224530000000     0.930300000000     0.137499   
H497     H      0.768640000000     0.399360000000     0.944520000000     0.0365557  
H498     H      0.810780000000     0.424240000000     0.976530000000     0.0385795  
H499     H      0.716770000000     0.400640000000     0.478610000000     0.0010959  
H500     H      0.726060000000     0.417900000000     0.534940000000     0.0619832  
H501     H      0.797780000000     0.368230000000     0.953240000000     0.0365626  
H502     H      0.809020000000     0.391870000000     0.005330000000     0.0380026  
H503     H      0.755690000000     0.386610000000     0.539070000000     0.0662725  
H504     H      0.685380000000     0.376450000000     0.512720000000     0.134609   
H505     H      0.753930000000     0.150070000000     0.960460000000     0.0395015  
H506     H      0.711920000000     0.113100000000     0.979820000000     0.0378518  
H507     H      0.802430000000     0.155820000000     0.004090000000    -0.00262727 
H508     H      0.791540000000     0.115650000000     0.544430000000     0.051769   
H509     H      0.718090000000     0.172560000000     0.969810000000     0.0431847  
H510     H      0.706960000000     0.137000000000     0.515520000000     0.0414055  
H511     H      0.755720000000     0.135950000000     0.556780000000     0.0576974  
H512     H      0.816620000000     0.174450000000     0.550310000000     0.13476    
H513     H      0.751520000000     0.061650000000     0.871180000000     0.0384716  
H514     H      0.795260000000     0.052420000000     0.909410000000     0.0370145  
H515     H      0.709020000000     0.513170000000     0.871870000000     0.00485117 
H516     H      0.723230000000     0.478740000000     0.916030000000     0.0535022  
H517     H      0.788620000000     0.054060000000     0.850400000000     0.0355128  
H518     H      0.805060000000     0.014290000000     0.890730000000     0.0397178  
H519     H      0.760030000000     0.466710000000     0.897630000000     0.0574495  
H520     H      0.699050000000     0.462380000000     0.861190000000     0.134758   
H521     H      0.767370000000     0.056790000000     0.627930000000     0.0345079  
H522     H      0.808230000000     0.036730000000     0.663630000000     0.0387007  
H523     H      0.718170000000     0.013240000000     0.628890000000     0.000563916
H524     H      0.733070000000     0.465570000000     0.661210000000     0.053105   
H525     H      0.801410000000     0.045890000000     0.604250000000     0.0361487  
H526     H      0.814670000000     0.501590000000     0.639370000000     0.0369961  
H527     H      0.767760000000     0.458250000000     0.636530000000     0.0595352  
H528     H      0.699240000000     0.468260000000     0.609130000000     0.136137   
H529     H      0.505060000000     0.218560000000     0.873770000000     0.0391666  
H530     H      0.965320000000     0.229140000000     0.913610000000     0.0407159  
H531     H      0.547190000000     0.270380000000     0.877850000000     0.00318219 
H532     H      0.525290000000     0.313780000000     0.912260000000     0.0539898  
H533     H      0.968770000000     0.226880000000     0.852530000000     0.0364842  
H534     H      0.950430000000     0.263720000000     0.892500000000     0.0384466  
H535     H      0.988970000000     0.315200000000     0.888840000000     0.0708092  
H536     H      0.558110000000     0.318730000000     0.859890000000     0.137889   
H537     H      0.010390000000     0.211940000000     0.649070000000     0.0286991  
H538     H      0.538450000000     0.215750000000     0.600760000000     0.0392746  
H539     H      0.970740000000     0.267540000000     0.642680000000     0.00127948 
H540     H      0.992590000000     0.308530000000     0.605280000000     0.0669268  
H541     H      0.549760000000     0.221820000000     0.662490000000     0.0359767  
H542     H      0.563390000000     0.247940000000     0.614630000000     0.0355121  
H543     H      0.531370000000     0.305900000000     0.624140000000     0.060632   
H544     H      0.964540000000     0.317150000000     0.659030000000     0.138323   
H545     H      0.652680000000     0.516440000000     0.706210000000     0.0321407  
H546     H      0.605180000000     0.046690000000     0.708590000000     0.0400105  
H547     H      0.643210000000     0.480930000000     0.765990000000     0.00749035 
H548     H      0.609030000000     0.511380000000     0.804850000000     0.0609425  
H549     H      0.668370000000     0.055730000000     0.714190000000     0.035793   
H550     H      0.620640000000     0.073800000000     0.737960000000     0.0351956  
H551     H      0.630550000000     0.047970000000     0.795680000000     0.0590355  
H552     H      0.660080000000     0.479140000000     0.814910000000     0.140504   
H553     H      0.898320000000     0.043080000000     0.764700000000     0.0342264  
H554     H      0.856490000000     0.031460000000     0.802420000000     0.0367876  
H555     H      0.895000000000     0.994560000000     0.718710000000     0.00238918 
H556     H      0.855280000000     0.453420000000     0.735010000000     0.0513953  
H557     H      0.917610000000     0.031230000000     0.800940000000     0.0367379  
H558     H      0.875330000000     0.494260000000     0.814170000000     0.0377799  
H559     H      0.876400000000     0.446490000000     0.771950000000     0.061317   
H560     H      0.910640000000     0.445600000000     0.706500000000     0.137952   
H561     H      0.021850000000     0.389700000000     0.703170000000     0.0433855  
H562     H      0.975600000000     0.358960000000     0.723550000000     0.0429181  
H563     H      0.569050000000     0.389620000000     0.743640000000     0.00147426 
H564     H      0.555200000000     0.354800000000     0.788240000000     0.0593165  
H565     H      0.988800000000     0.417000000000     0.710700000000     0.0532018  
H566     H      0.972820000000     0.385290000000     0.757780000000     0.0458066  
H567     H      0.523000000000     0.381100000000     0.799750000000     0.06535    
H568     H      0.589830000000     0.408030000000     0.787730000000     0.13603    
H569     H      0.005590000000     0.139950000000     0.718620000000     0.0244396  
H570     H      0.961490000000     0.104350000000     0.732010000000     0.0393043  
H571     H      0.548350000000     0.137270000000     0.768520000000     0.00134425 
H572     H      0.525580000000     0.104330000000     0.812190000000     0.0532999  
H573     H      0.970940000000     0.164770000000     0.724980000000     0.0344653  
H574     H      0.951090000000     0.128800000000     0.765830000000     0.0373645  
H575     H      0.490620000000     0.130130000000     0.813950000000     0.0572919  
H576     H      0.560560000000     0.156560000000     0.815330000000     0.137665   
H577     H      0.882770000000     0.760160000000     0.457880000000     0.0362867  
H578     H      0.910450000000     0.718950000000     0.490200000000     0.0385     
H579     H      0.879690000000     0.816120000000     0.988390000000     0.00404392 
H580     H      0.910120000000     0.811430000000     0.037670000000     0.0529363  
H581     H      0.854870000000     0.729060000000     0.470160000000     0.0346795  
H582     H      0.881950000000     0.724290000000     0.522090000000     0.0404394  
H583     H      0.883180000000     0.781100000000     0.052540000000     0.0595865  
H584     H      0.857710000000     0.845040000000     0.025760000000     0.133792   
H585     H      0.641770000000     0.819660000000     0.488650000000     0.0375772  
H586     H      0.603460000000     0.808610000000     0.029870000000     0.039178   
H587     H      0.636770000000     0.772700000000     0.445370000000     0.00155426 
H588     H      0.599790000000     0.729870000000     0.463490000000     0.0521424  
H589     H      0.664060000000     0.810620000000     0.024010000000     0.0472273  
H590     H      0.624300000000     0.772730000000     0.041980000000     0.0379783  
H591     H      0.623850000000     0.722620000000     0.998430000000     0.061669   
H592     H      0.652360000000     0.724520000000     0.430300000000     0.137344   
H593     H      0.768640000000     0.899360000000     0.444520000000     0.0360868  
H594     H      0.810780000000     0.924230000000     0.476530000000     0.0388914  
H595     H      0.716770000000     0.900640000000     0.978610000000     0.000697891
H596     H      0.726060000000     0.917900000000     0.034940000000     0.0626318  
H597     H      0.797780000000     0.868230000000     0.453240000000     0.0358686  
H598     H      0.809020000000     0.891870000000     0.505330000000     0.0418912  
H599     H      0.755690000000     0.886610000000     0.039070000000     0.0668773  
H600     H      0.685380000000     0.876450000000     0.012720000000     0.13452    
H601     H      0.753930000000     0.650070000000     0.460460000000     0.0390675  
H602     H      0.711920000000     0.613100000000     0.479820000000     0.0382175  
H603     H      0.802430000000     0.655820000000     0.504090000000    -0.00143794 
H604     H      0.791540000000     0.615650000000     0.044430000000     0.0516182  
H605     H      0.718090000000     0.672560000000     0.469810000000     0.042933   
H606     H      0.706960000000     0.637000000000     0.015530000000     0.0375728  
H607     H      0.755720000000     0.635950000000     0.056780000000     0.0575534  
H608     H      0.816620000000     0.674450000000     0.050310000000     0.134496   
H609     H      0.751520000000     0.561650000000     0.371180000000     0.0383205  
H610     H      0.795260000000     0.552420000000     0.409410000000     0.0365758  
H611     H      0.709020000000     0.013170000000     0.371870000000     0.00453911 
H612     H      0.723230000000     0.978740000000     0.416020000000     0.0531637  
H613     H      0.788620000000     0.554060000000     0.350400000000     0.0354268  
H614     H      0.805060000000     0.514290000000     0.390730000000     0.0394773  
H615     H      0.760030000000     0.966710000000     0.397630000000     0.0573149  
H616     H      0.699050000000     0.962380000000     0.361190000000     0.134691   
H617     H      0.767370000000     0.556790000000     0.127930000000     0.0344868  
H618     H      0.808230000000     0.536730000000     0.163630000000     0.0386741  
H619     H      0.718170000000     0.513240000000     0.128890000000     0.000621307
H620     H      0.733070000000     0.965570000000     0.161210000000     0.0531099  
H621     H      0.801410000000     0.545890000000     0.104250000000     0.0360748  
H622     H      0.814670000000     0.001590000000     0.139370000000     0.0368941  
H623     H      0.767760000000     0.958250000000     0.136530000000     0.0595325  
H624     H      0.699240000000     0.968260000000     0.109130000000     0.136046   
H625     H      0.505060000000     0.718560000000     0.373770000000     0.0390137  
H626     H      0.965320000000     0.729140000000     0.413610000000     0.0403391  
H627     H      0.547190000000     0.770380000000     0.377850000000     0.0030674  
H628     H      0.525290000000     0.813780000000     0.412260000000     0.053555   
H629     H      0.968770000000     0.726880000000     0.352530000000     0.0363947  
H630     H      0.950430000000     0.763730000000     0.392500000000     0.0382198  
H631     H      0.988970000000     0.815200000000     0.388840000000     0.070597   
H632     H      0.558110000000     0.818730000000     0.359890000000     0.137737   
H633     H      0.010390000000     0.711940000000     0.149070000000     0.0286405  
H634     H      0.538450000000     0.715750000000     0.100760000000     0.038989   
H635     H      0.970740000000     0.767540000000     0.142680000000     0.00126541 
H636     H      0.992590000000     0.808530000000     0.105280000000     0.066847   
H637     H      0.549760000000     0.721820000000     0.162490000000     0.0359336  
H638     H      0.563390000000     0.747940000000     0.114630000000     0.0353505  
H639     H      0.531370000000     0.805900000000     0.124140000000     0.0605511  
H640     H      0.964540000000     0.817150000000     0.159030000000     0.138295   
H641     H      0.652680000000     0.016440000000     0.206210000000     0.0320737  
H642     H      0.605180000000     0.546690000000     0.208590000000     0.0399494  
H643     H      0.643210000000     0.980930000000     0.265990000000     0.0076336  
H644     H      0.609030000000     0.011380000000     0.304850000000     0.060765   
H645     H      0.668370000000     0.555720000000     0.214190000000     0.0357726  
H646     H      0.620640000000     0.573800000000     0.237960000000     0.0351609  
H647     H      0.630550000000     0.547970000000     0.295680000000     0.0589681  
H648     H      0.660080000000     0.979140000000     0.314910000000     0.140456   
H649     H      0.898320000000     0.543080000000     0.264700000000     0.0342044  
H650     H      0.856490000000     0.531460000000     0.302420000000     0.0366833  
H651     H      0.895000000000     0.494570000000     0.218710000000     0.00235331 
H652     H      0.855280000000     0.953420000000     0.235010000000     0.0513922  
H653     H      0.917610000000     0.531230000000     0.300940000000     0.0366382  
H654     H      0.875330000000     0.994260000000     0.314170000000     0.0377753  
H655     H      0.876400000000     0.946490000000     0.271950000000     0.0612785  
H656     H      0.910640000000     0.945600000000     0.206500000000     0.137923   
H657     H      0.021850000000     0.889700000000     0.203170000000     0.0433121  
H658     H      0.975600000000     0.858960000000     0.223550000000     0.0429038  
H659     H      0.569050000000     0.889620000000     0.243640000000     0.00147013 
H660     H      0.555200000000     0.854800000000     0.288240000000     0.0592581  
H661     H      0.988800000000     0.917000000000     0.210700000000     0.0531531  
H662     H      0.972820000000     0.885290000000     0.257780000000     0.0457821  
H663     H      0.523000000000     0.881100000000     0.299760000000     0.0652236  
H664     H      0.589830000000     0.908030000000     0.287730000000     0.135986   
H665     H      0.005590000000     0.639950000000     0.218620000000     0.0243769  
H666     H      0.961490000000     0.604350000000     0.232010000000     0.0392741  
H667     H      0.548350000000     0.637270000000     0.268520000000     0.0013449  
H668     H      0.525580000000     0.604340000000     0.312190000000     0.0531526  
H669     H      0.970940000000     0.664770000000     0.224980000000     0.0344387  
H670     H      0.951090000000     0.628800000000     0.265830000000     0.0373269  
H671     H      0.490620000000     0.630130000000     0.313940000000     0.0571568  
H672     H      0.560560000000     0.656560000000     0.315330000000     0.137578   
H673     H      0.882770000000     0.760160000000     0.957880000000     0.0357667  
H674     H      0.910450000000     0.718950000000     0.990200000000     0.0430936  
H675     H      0.879690000000     0.816120000000     0.488390000000     6.72135e-05
H676     H      0.910120000000     0.811430000000     0.537670000000     0.0535528  
H677     H      0.854870000000     0.729060000000     0.970160000000     0.0342625  
H678     H      0.881950000000     0.724290000000     0.022090000000     0.0414115  
H679     H      0.883180000000     0.781100000000     0.552550000000     0.0598464  
H680     H      0.857710000000     0.845040000000     0.525760000000     0.134662   
H681     H      0.641770000000     0.819660000000     0.988650000000     0.0416391  
H682     H      0.603460000000     0.808610000000     0.529870000000     0.0393968  
H683     H      0.636770000000     0.772700000000     0.945360000000     0.00179952 
H684     H      0.599790000000     0.729870000000     0.963490000000     0.0526964  
H685     H      0.664060000000     0.810620000000     0.524010000000     0.0462851  
H686     H      0.624300000000     0.772730000000     0.541980000000     0.0382362  
H687     H      0.623850000000     0.722620000000     0.498430000000     0.0603648  
H688     H      0.652360000000     0.724520000000     0.930300000000     0.13747    
H689     H      0.768640000000     0.899360000000     0.944520000000     0.0365606  
H690     H      0.810780000000     0.924230000000     0.976530000000     0.0385964  
H691     H      0.716770000000     0.900640000000     0.478610000000     0.00107671 
H692     H      0.726060000000     0.917900000000     0.534940000000     0.0620058  
H693     H      0.797780000000     0.868230000000     0.953240000000     0.0365689  
H694     H      0.809020000000     0.891870000000     0.005330000000     0.0380163  
H695     H      0.755690000000     0.886610000000     0.539070000000     0.0662887  
H696     H      0.685380000000     0.876450000000     0.512720000000     0.134714   
H697     H      0.753930000000     0.650070000000     0.960460000000     0.0394965  
H698     H      0.711920000000     0.613100000000     0.979820000000     0.0378552  
H699     H      0.802430000000     0.655820000000     0.004090000000    -0.00263027 
H700     H      0.791540000000     0.615650000000     0.544430000000     0.0517702  
H701     H      0.718090000000     0.672560000000     0.969810000000     0.0431758  
H702     H      0.706960000000     0.637000000000     0.515520000000     0.0414072  
H703     H      0.755720000000     0.635950000000     0.556780000000     0.0576972  
H704     H      0.816620000000     0.674450000000     0.550310000000     0.134759   
H705     H      0.751520000000     0.561650000000     0.871180000000     0.0384709  
H706     H      0.795260000000     0.552420000000     0.909410000000     0.0370175  
H707     H      0.709020000000     0.013170000000     0.871870000000     0.00472931 
H708     H      0.723230000000     0.978740000000     0.916030000000     0.053566   
H709     H      0.788620000000     0.554060000000     0.850400000000     0.0355093  
H710     H      0.805060000000     0.514290000000     0.890730000000     0.0397479  
H711     H      0.760030000000     0.966710000000     0.897630000000     0.0575086  
H712     H      0.699050000000     0.962380000000     0.861190000000     0.134784   
H713     H      0.767370000000     0.556790000000     0.627930000000     0.0345101  
H714     H      0.808230000000     0.536730000000     0.663630000000     0.0387064  
H715     H      0.718170000000     0.513240000000     0.628890000000     0.000676886
H716     H      0.733070000000     0.965570000000     0.661210000000     0.0531222  
H717     H      0.801410000000     0.545890000000     0.604250000000     0.0361542  
H718     H      0.814670000000     0.001590000000     0.639370000000     0.0369626  
H719     H      0.767760000000     0.958250000000     0.636530000000     0.0595522  
H720     H      0.699240000000     0.968260000000     0.609130000000     0.136168   
H721     H      0.505060000000     0.718560000000     0.873770000000     0.0391694  
H722     H      0.965320000000     0.729140000000     0.913610000000     0.0407158  
H723     H      0.547190000000     0.770380000000     0.877850000000     0.0031837  
H724     H      0.525290000000     0.813780000000     0.912260000000     0.0539926  
H725     H      0.968770000000     0.726880000000     0.852530000000     0.036486   
H726     H      0.950430000000     0.763730000000     0.892500000000     0.0384485  
H727     H      0.988970000000     0.815200000000     0.888840000000     0.0708091  
H728     H      0.558110000000     0.818730000000     0.859890000000     0.137892   
H729     H      0.010390000000     0.711940000000     0.649070000000     0.0287108  
H730     H      0.538450000000     0.715750000000     0.600760000000     0.0392411  
H731     H      0.970740000000     0.767540000000     0.642680000000     0.00128133 
H732     H      0.992590000000     0.808530000000     0.605280000000     0.0669176  
H733     H      0.549760000000     0.721820000000     0.662490000000     0.0359853  
H734     H      0.563390000000     0.747940000000     0.614630000000     0.0354823  
H735     H      0.531370000000     0.805900000000     0.624140000000     0.060626   
H736     H      0.964540000000     0.817150000000     0.659030000000     0.138325   
H737     H      0.652680000000     0.016440000000     0.706210000000     0.0321121  
H738     H      0.605180000000     0.546690000000     0.708590000000     0.0400192  
H739     H      0.643210000000     0.980930000000     0.765990000000     0.00762355 
H740     H      0.609030000000     0.011380000000     0.804850000000     0.0608943  
H741     H      0.668370000000     0.555720000000     0.714190000000     0.035803   
H742     H      0.620640000000     0.573800000000     0.737960000000     0.0351945  
H743     H      0.630550000000     0.547970000000     0.795680000000     0.0590594  
H744     H      0.660080000000     0.979140000000     0.814910000000     0.140497   
H745     H      0.898320000000     0.543080000000     0.764700000000     0.0342409  
H746     H      0.856490000000     0.531460000000     0.802420000000     0.0367595  
H747     H      0.895000000000     0.494570000000     0.718710000000     0.00237327 
H748     H      0.855280000000     0.953420000000     0.735010000000     0.0514052  
H749     H      0.917610000000     0.531230000000     0.800940000000     0.0367581  
H750     H      0.875330000000     0.994260000000     0.814170000000     0.0379069  
H751     H      0.876400000000     0.946490000000     0.771950000000     0.0613254  
H752     H      0.910640000000     0.945600000000     0.706500000000     0.137967   
H753     H      0.021850000000     0.889700000000     0.703170000000     0.0433901  
H754     H      0.975600000000     0.858960000000     0.723550000000     0.042913   
H755     H      0.569050000000     0.889620000000     0.743640000000     0.00147847 
H756     H      0.555200000000     0.854800000000     0.788240000000     0.0593123  
H757     H      0.988800000000     0.917000000000     0.710700000000     0.0532113  
H758     H      0.972820000000     0.885290000000     0.757780000000     0.0458079  
H759     H      0.523000000000     0.881100000000     0.799750000000     0.0653526  
H760     H      0.589830000000     0.908030000000     0.787730000000     0.136036   
H761     H      0.005590000000     0.639950000000     0.718620000000     0.0244422  
H762     H      0.961490000000     0.604350000000     0.732010000000     0.0393095  
H763     H      0.548350000000     0.637270000000     0.768520000000     0.00134329 
H764     H      0.525580000000     0.604340000000     0.812190000000     0.0533129  
H765     H      0.970940000000     0.664770000000     0.724980000000     0.0344696  
H766     H      0.951090000000     0.628800000000     0.765830000000     0.0373668  
H767     H      0.490620000000     0.630130000000     0.813950000000     0.0573007  
H768     H      0.560560000000     0.656560000000     0.815330000000     0.137666   
N1       N      0.350700000000     0.274870000000     0.994120000000    -0.19462    
N2       N      0.412980000000     0.264370000000     0.515560000000    -0.173469   
N3       N      0.164490000000     0.274080000000     0.987370000000    -0.193318   
N4       N      0.098860000000     0.267150000000     0.499040000000    -0.173683   
N5       N      0.253170000000     0.365170000000     0.478730000000    -0.196772   
N6       N      0.269280000000     0.423700000000     0.507090000000    -0.17214    
N7       N      0.257270000000     0.178280000000     0.502460000000    -0.193089   
N8       N      0.250800000000     0.111420000000     0.513190000000    -0.173251   
N9       N      0.253920000000     0.015460000000     0.349300000000    -0.19299    
N10      N      0.261130000000     0.014180000000     0.415830000000    -0.173186   
N11      N      0.260330000000     0.014280000000     0.101030000000    -0.195251   
N12      N      0.271380000000     0.000130000000     0.165170000000    -0.173866   
N13      N      0.005030000000     0.263880000000     0.350740000000    -0.20071    
N14      N      0.994330000000     0.272270000000     0.415710000000    -0.168522   
N15      N      0.014800000000     0.259630000000     0.166200000000    -0.200113   
N16      N      0.017950000000     0.263440000000     0.099290000000    -0.171144   
N17      N      0.170270000000     0.522090000000     0.252840000000    -0.195156   
N18      N      0.103200000000     0.530140000000     0.257040000000    -0.172193   
N19      N      0.419600000000     0.496770000000     0.262560000000    -0.195688   
N20      N      0.353230000000     0.491890000000     0.269220000000    -0.173778   
N21      N      0.527760000000     0.418760000000     0.244270000000    -0.196099   
N22      N      0.513450000000     0.354580000000     0.257980000000    -0.17146    
N23      N      0.507330000000     0.166460000000     0.261480000000    -0.196944   
N24      N      0.493370000000     0.101630000000     0.272270000000    -0.175387   
N25      N      0.350700000000     0.274870000000     0.494120000000    -0.195973   
N26      N      0.412980000000     0.264370000000     0.015560000000    -0.173041   
N27      N      0.164490000000     0.274080000000     0.487370000000    -0.194989   
N28      N      0.098860000000     0.267150000000     0.999040000000    -0.16929    
N29      N      0.253170000000     0.365170000000     0.978730000000    -0.197569   
N30      N      0.269280000000     0.423700000000     0.007090000000    -0.173993   
N31      N      0.257270000000     0.178280000000     0.002460000000    -0.197199   
N32      N      0.250800000000     0.111420000000     0.013200000000    -0.175428   
N33      N      0.253920000000     0.015460000000     0.849300000000    -0.19297    
N34      N      0.261130000000     0.014180000000     0.915840000000    -0.172976   
N35      N      0.260330000000     0.014280000000     0.601030000000    -0.195373   
N36      N      0.271380000000     0.000130000000     0.665170000000    -0.173861   
N37      N      0.005030000000     0.263880000000     0.850740000000    -0.200685   
N38      N      0.994330000000     0.272270000000     0.915710000000    -0.16813    
N39      N      0.014800000000     0.259630000000     0.666200000000    -0.200108   
N40      N      0.017950000000     0.263440000000     0.599290000000    -0.171191   
N41      N      0.170270000000     0.522090000000     0.752840000000    -0.195169   
N42      N      0.103200000000     0.530140000000     0.757040000000    -0.17217    
N43      N      0.419600000000     0.496770000000     0.762550000000    -0.19569    
N44      N      0.353230000000     0.491890000000     0.769220000000    -0.173766   
N45      N      0.527760000000     0.418760000000     0.744270000000    -0.196067   
N46      N      0.513450000000     0.354580000000     0.757980000000    -0.171449   
N47      N      0.507330000000     0.166460000000     0.761480000000    -0.196953   
N48      N      0.493370000000     0.101630000000     0.772270000000    -0.175358   
N49      N      0.350700000000     0.774870000000     0.994120000000    -0.19461    
N50      N      0.412980000000     0.764370000000     0.515560000000    -0.173467   
N51      N      0.164490000000     0.774080000000     0.987370000000    -0.193311   
N52      N      0.098860000000     0.767150000000     0.499040000000    -0.173702   
N53      N      0.253170000000     0.865170000000     0.478730000000    -0.196784   
N54      N      0.269280000000     0.923700000000     0.507090000000    -0.172123   
N55      N      0.257270000000     0.678270000000     0.502460000000    -0.19302    
N56      N      0.250800000000     0.611420000000     0.513190000000    -0.173251   
N57      N      0.253920000000     0.515460000000     0.349300000000    -0.192997   
N58      N      0.261130000000     0.514180000000     0.415830000000    -0.17315    
N59      N      0.260330000000     0.514280000000     0.101030000000    -0.195185   
N60      N      0.271380000000     0.500130000000     0.165170000000    -0.173836   
N61      N      0.005030000000     0.763880000000     0.350740000000    -0.200715   
N62      N      0.994330000000     0.772270000000     0.415710000000    -0.168518   
N63      N      0.014800000000     0.759630000000     0.166200000000    -0.200117   
N64      N      0.017950000000     0.763440000000     0.099290000000    -0.171221   
N65      N      0.170270000000     0.022090000000     0.252840000000    -0.195119   
N66      N      0.103200000000     0.030140000000     0.257040000000    -0.17221    
N67      N      0.419600000000     0.996770000000     0.262560000000    -0.195681   
N68      N      0.353230000000     0.991890000000     0.269220000000    -0.173722   
N69      N      0.527760000000     0.918760000000     0.244270000000    -0.196098   
N70      N      0.513450000000     0.854590000000     0.257980000000    -0.17137    
N71      N      0.507330000000     0.666460000000     0.261480000000    -0.196943   
N72      N      0.493370000000     0.601630000000     0.272270000000    -0.17538    
N73      N      0.350700000000     0.774870000000     0.494120000000    -0.195964   
N74      N      0.412980000000     0.764370000000     0.015560000000    -0.173039   
N75      N      0.164490000000     0.774080000000     0.487370000000    -0.194982   
N76      N      0.098860000000     0.767150000000     0.999040000000    -0.169309   
N77      N      0.253170000000     0.865170000000     0.978730000000    -0.19758    
N78      N      0.269280000000     0.923700000000     0.007090000000    -0.173976   
N79      N      0.257270000000     0.678270000000     0.002460000000    -0.197128   
N80      N      0.250800000000     0.611420000000     0.013200000000    -0.175428   
N81      N      0.253920000000     0.515460000000     0.849300000000    -0.192977   
N82      N      0.261130000000     0.514180000000     0.915840000000    -0.172941   
N83      N      0.260330000000     0.514280000000     0.601030000000    -0.195307   
N84      N      0.271380000000     0.500130000000     0.665170000000    -0.173832   
N85      N      0.005030000000     0.763880000000     0.850740000000    -0.20069    
N86      N      0.994330000000     0.772270000000     0.915710000000    -0.168125   
N87      N      0.014800000000     0.759630000000     0.666200000000    -0.200112   
N88      N      0.017950000000     0.763440000000     0.599290000000    -0.171267   
N89      N      0.170270000000     0.022090000000     0.752840000000    -0.195131   
N90      N      0.103200000000     0.030140000000     0.757040000000    -0.172187   
N91      N      0.419600000000     0.996770000000     0.762550000000    -0.195683   
N92      N      0.353230000000     0.991890000000     0.769220000000    -0.173709   
N93      N      0.527760000000     0.918760000000     0.744270000000    -0.196066   
N94      N      0.513450000000     0.854590000000     0.757980000000    -0.171359   
N95      N      0.507330000000     0.666460000000     0.761480000000    -0.196953   
N96      N      0.493370000000     0.601630000000     0.772270000000    -0.175351   
N97      N      0.850700000000     0.274870000000     0.994120000000    -0.194607   
N98      N      0.912980000000     0.264370000000     0.515560000000    -0.172704   
N99      N      0.664490000000     0.274080000000     0.987370000000    -0.193355   
N100     N      0.598860000000     0.267150000000     0.499040000000    -0.173783   
N101     N      0.753170000000     0.365170000000     0.478730000000    -0.196773   
N102     N      0.769280000000     0.423700000000     0.507090000000    -0.172079   
N103     N      0.757270000000     0.178280000000     0.502460000000    -0.193081   
N104     N      0.750800000000     0.111420000000     0.513190000000    -0.1732     
N105     N      0.753910000000     0.015460000000     0.349300000000    -0.192989   
N106     N      0.761130000000     0.014180000000     0.415830000000    -0.17313    
N107     N      0.760330000000     0.014280000000     0.101030000000    -0.19521    
N108     N      0.771380000000     0.000130000000     0.165170000000    -0.173816   
N109     N      0.505030000000     0.263880000000     0.350740000000    -0.195601   
N110     N      0.494330000000     0.272270000000     0.415710000000    -0.174119   
N111     N      0.514800000000     0.259630000000     0.166200000000    -0.196352   
N112     N      0.517950000000     0.263440000000     0.099290000000    -0.173064   
N113     N      0.670270000000     0.522090000000     0.252840000000    -0.195159   
N114     N      0.603200000000     0.530140000000     0.257040000000    -0.17229    
N115     N      0.919600000000     0.496770000000     0.262560000000    -0.194938   
N116     N      0.853230000000     0.491890000000     0.269220000000    -0.173749   
N117     N      0.027760000000     0.418760000000     0.244270000000    -0.193979   
N118     N      0.013450000000     0.354580000000     0.257980000000    -0.175516   
N119     N      0.007330000000     0.166460000000     0.261480000000    -0.201955   
N120     N      0.993370000000     0.101630000000     0.272270000000    -0.169872   
N121     N      0.850700000000     0.274870000000     0.494120000000    -0.195948   
N122     N      0.912980000000     0.264370000000     0.015560000000    -0.17228    
N123     N      0.664490000000     0.274080000000     0.487370000000    -0.195019   
N124     N      0.598860000000     0.267150000000     0.999040000000    -0.169409   
N125     N      0.753170000000     0.365170000000     0.978730000000    -0.197565   
N126     N      0.769280000000     0.423700000000     0.007090000000    -0.17392    
N127     N      0.757270000000     0.178280000000     0.002460000000    -0.197166   
N128     N      0.750800000000     0.111420000000     0.013200000000    -0.175365   
N129     N      0.753910000000     0.015460000000     0.849300000000    -0.192969   
N130     N      0.761130000000     0.014180000000     0.915840000000    -0.172922   
N131     N      0.760330000000     0.014280000000     0.601030000000    -0.195333   
N132     N      0.771380000000     0.000130000000     0.665170000000    -0.173811   
N133     N      0.505030000000     0.263880000000     0.850740000000    -0.195599   
N134     N      0.494330000000     0.272270000000     0.915710000000    -0.173702   
N135     N      0.514800000000     0.259630000000     0.666200000000    -0.196351   
N136     N      0.517950000000     0.263440000000     0.599290000000    -0.173108   
N137     N      0.670270000000     0.522090000000     0.752840000000    -0.195171   
N138     N      0.603200000000     0.530140000000     0.757040000000    -0.172267   
N139     N      0.919600000000     0.496770000000     0.762550000000    -0.194943   
N140     N      0.853230000000     0.491890000000     0.769220000000    -0.173737   
N141     N      0.027760000000     0.418760000000     0.744270000000    -0.193953   
N142     N      0.013450000000     0.354580000000     0.757980000000    -0.175496   
N143     N      0.007330000000     0.166460000000     0.761480000000    -0.201951   
N144     N      0.993370000000     0.101630000000     0.772270000000    -0.169862   
N145     N      0.850700000000     0.774870000000     0.994120000000    -0.194598   
N146     N      0.912980000000     0.764370000000     0.515560000000    -0.172703   
N147     N      0.664490000000     0.774080000000     0.987370000000    -0.193348   
N148     N      0.598860000000     0.767150000000     0.499040000000    -0.173802   
N149     N      0.753170000000     0.865170000000     0.478730000000    -0.196784   
N150     N      0.769280000000     0.923700000000     0.507090000000    -0.172062   
N151     N      0.757270000000     0.678270000000     0.502460000000    -0.193012   
N152     N      0.750800000000     0.611420000000     0.513190000000    -0.1732     
N153     N      0.753910000000     0.515460000000     0.349300000000    -0.192996   
N154     N      0.761130000000     0.514180000000     0.415830000000    -0.173094   
N155     N      0.760330000000     0.514280000000     0.101030000000    -0.195145   
N156     N      0.771380000000     0.500130000000     0.165170000000    -0.173787   
N157     N      0.505030000000     0.763880000000     0.350740000000    -0.195606   
N158     N      0.494330000000     0.772270000000     0.415710000000    -0.174116   
N159     N      0.514800000000     0.759630000000     0.166200000000    -0.196356   
N160     N      0.517950000000     0.763440000000     0.099290000000    -0.17314    
N161     N      0.670270000000     0.022090000000     0.252840000000    -0.195122   
N162     N      0.603200000000     0.030140000000     0.257040000000    -0.172307   
N163     N      0.919600000000     0.996770000000     0.262560000000    -0.194931   
N164     N      0.853230000000     0.991890000000     0.269220000000    -0.173693   
N165     N      0.027760000000     0.918760000000     0.244270000000    -0.193978   
N166     N      0.013450000000     0.854590000000     0.257980000000    -0.175429   
N167     N      0.007330000000     0.666460000000     0.261480000000    -0.201954   
N168     N      0.993370000000     0.601630000000     0.272270000000    -0.169864   
N169     N      0.850700000000     0.774870000000     0.494120000000    -0.195939   
N170     N      0.912980000000     0.764370000000     0.015560000000    -0.172278   
N171     N      0.664490000000     0.774080000000     0.487370000000    -0.195012   
N172     N      0.598860000000     0.767150000000     0.999040000000    -0.169428   
N173     N      0.753170000000     0.865170000000     0.978730000000    -0.197576   
N174     N      0.769280000000     0.923700000000     0.007090000000    -0.173903   
N175     N      0.757270000000     0.678270000000     0.002460000000    -0.197095   
N176     N      0.750800000000     0.611420000000     0.013200000000    -0.175365   
N177     N      0.753910000000     0.515460000000     0.849300000000    -0.192976   
N178     N      0.761130000000     0.514180000000     0.915840000000    -0.172887   
N179     N      0.760330000000     0.514280000000     0.601030000000    -0.195267   
N180     N      0.771380000000     0.500130000000     0.665170000000    -0.173782   
N181     N      0.505030000000     0.763880000000     0.850740000000    -0.195604   
N182     N      0.494330000000     0.772270000000     0.915710000000    -0.173699   
N183     N      0.514800000000     0.759630000000     0.666200000000    -0.196355   
N184     N      0.517950000000     0.763440000000     0.599290000000    -0.173185   
N185     N      0.670270000000     0.022090000000     0.752840000000    -0.195134   
N186     N      0.603200000000     0.030140000000     0.757040000000    -0.172284   
N187     N      0.919600000000     0.996770000000     0.762550000000    -0.194936   
N188     N      0.853230000000     0.991890000000     0.769220000000    -0.173681   
N189     N      0.027760000000     0.918760000000     0.744270000000    -0.193952   
N190     N      0.013450000000     0.854590000000     0.757980000000    -0.175409   
N191     N      0.007330000000     0.666460000000     0.761480000000    -0.201951   
N192     N      0.993370000000     0.601630000000     0.772270000000    -0.169855   
O1       O      0.999090000000     0.058220000000     0.238980000000    -0.55039    
O2       O      0.518960000000     0.469680000000     0.225230000000    -0.555801   
O3       O      0.465400000000     0.003320000000     0.233490000000    -0.546248   
O4       O      0.054470000000     0.524900000000     0.231020000000    -0.542986   
O5       O      0.057890000000     0.014010000000     0.282890000000    -0.562954   
O6       O      0.468500000000     0.500080000000     0.286530000000    -0.563182   
O7       O      0.021040000000     0.461840000000     0.277860000000    -0.544227   
O8       O      0.506870000000     0.051640000000     0.291200000000    -0.562864   
O9       O      0.038580000000     0.305470000000     0.257930000000    -0.549393   
O10      O      0.035370000000     0.213930000000     0.263970000000    -0.54517    
O11      O      0.039260000000     0.255860000000     0.214990000000    -0.549911   
O12      O      0.034510000000     0.263500000000     0.305070000000    -0.542079   
O13      O      0.481080000000     0.259980000000     0.302000000000    -0.558812   
O14      O      0.486120000000     0.262520000000     0.212100000000    -0.555984   
O15      O      0.482470000000     0.215360000000     0.255520000000    -0.563079   
O16      O      0.484970000000     0.307280000000     0.257110000000    -0.551443   
O17      O      0.311000000000     0.026540000000     0.263240000000    -0.554582   
O18      O      0.221920000000     0.040890000000     0.248260000000    -0.546886   
O19      O      0.260850000000     0.037970000000     0.300040000000    -0.555993   
O20      O      0.273790000000     0.029780000000     0.211060000000    -0.556363   
O21      O      0.258990000000     0.477830000000     0.213570000000    -0.555187   
O22      O      0.255130000000     0.484310000000     0.303880000000    -0.530934   
O23      O      0.212990000000     0.488220000000     0.256960000000    -0.551277   
O24      O      0.302400000000     0.473150000000     0.260690000000    -0.556211   
O25      O      0.287090000000     0.518000000000     0.053600000000    -0.553733   
O26      O      0.286650000000     0.023790000000     0.463210000000    -0.551536   
O27      O      0.282320000000     0.066150000000     0.012190000000    -0.554357   
O28      O      0.291570000000     0.474650000000     0.504990000000    -0.548194   
O29      O      0.238510000000     0.469230000000     0.009960000000    -0.556625   
O30      O      0.229310000000     0.060650000000     0.506770000000    -0.553996   
O31      O      0.234260000000     0.512540000000     0.463210000000    -0.558131   
O32      O      0.233560000000     0.015210000000     0.053440000000    -0.5444     
O33      O      0.514020000000     0.237510000000     0.050660000000    -0.545738   
O34      O      0.998330000000     0.242090000000     0.461250000000    -0.546047   
O35      O      0.050990000000     0.240290000000     0.998160000000    -0.546622   
O36      O      0.461310000000     0.238560000000     0.512220000000    -0.557508   
O37      O      0.460230000000     0.292690000000     0.012460000000    -0.555959   
O38      O      0.051240000000     0.293760000000     0.506430000000    -0.555829   
O39      O      0.502970000000     0.295950000000     0.464030000000    -0.562127   
O40      O      0.008620000000     0.291250000000     0.053490000000    -0.567685   
O41      O      0.259380000000     0.229940000000     0.022820000000    -0.540474   
O42      O      0.253480000000     0.320960000000     0.011080000000    -0.549424   
O43      O      0.211210000000     0.273880000000     0.015580000000    -0.559321   
O44      O      0.301880000000     0.279140000000     0.018350000000    -0.544684   
O45      O      0.304140000000     0.266200000000     0.466750000000    -0.557261   
O46      O      0.213140000000     0.269520000000     0.462550000000    -0.541529   
O47      O      0.260870000000     0.314110000000     0.458800000000    -0.551294   
O48      O      0.256140000000     0.222790000000     0.470210000000    -0.554549   
O49      O      0.347080000000     0.323520000000     0.024740000000    -0.275825   
O50      O      0.163050000000     0.230290000000     0.450640000000    -0.27997    
O51      O      0.204720000000     0.362970000000     0.008830000000    -0.285654   
O52      O      0.294640000000     0.182150000000     0.045210000000    -0.274197   
O53      O      0.219910000000     0.468890000000     0.351750000000    -0.267397   
O54      O      0.220180000000     0.473240000000     0.099000000000    -0.278679   
O55      O      0.037910000000     0.310900000000     0.350010000000    -0.283552   
O56      O      0.485430000000     0.308870000000     0.166960000000    -0.281564   
O57      O      0.169710000000     0.498290000000     0.304250000000    -0.275692   
O58      O      0.419780000000     0.451890000000     0.227430000000    -0.283691   
O59      O      0.069300000000     0.419350000000     0.283270000000    -0.278296   
O60      O      0.040820000000     0.167360000000     0.307420000000    -0.281288   
O61      O      0.999090000000     0.058220000000     0.738980000000    -0.550374   
O62      O      0.518960000000     0.469680000000     0.725230000000    -0.555755   
O63      O      0.465400000000     0.003320000000     0.733490000000    -0.546214   
O64      O      0.054470000000     0.524900000000     0.731020000000    -0.542951   
O65      O      0.057890000000     0.014010000000     0.782890000000    -0.562913   
O66      O      0.468500000000     0.500080000000     0.786530000000    -0.563116   
O67      O      0.021040000000     0.461840000000     0.777860000000    -0.544181   
O68      O      0.506870000000     0.051640000000     0.791200000000    -0.562786   
O69      O      0.038580000000     0.305470000000     0.757930000000    -0.5494     
O70      O      0.035370000000     0.213930000000     0.763970000000    -0.545173   
O71      O      0.039260000000     0.255860000000     0.714990000000    -0.549914   
O72      O      0.034510000000     0.263500000000     0.805070000000    -0.542074   
O73      O      0.481080000000     0.259980000000     0.802000000000    -0.558788   
O74      O      0.486120000000     0.262520000000     0.712100000000    -0.555986   
O75      O      0.482470000000     0.215360000000     0.755520000000    -0.563071   
O76      O      0.484970000000     0.307280000000     0.757110000000    -0.551434   
O77      O      0.311000000000     0.026540000000     0.763240000000    -0.554572   
O78      O      0.221920000000     0.040890000000     0.748260000000    -0.54688    
O79      O      0.260850000000     0.037970000000     0.800040000000    -0.555972   
O80      O      0.273790000000     0.029780000000     0.711060000000    -0.556362   
O81      O      0.258990000000     0.477830000000     0.713570000000    -0.555191   
O82      O      0.255130000000     0.484310000000     0.803880000000    -0.530911   
O83      O      0.212990000000     0.488220000000     0.756960000000    -0.551273   
O84      O      0.302400000000     0.473150000000     0.760690000000    -0.556201   
O85      O      0.287090000000     0.518000000000     0.553600000000    -0.554339   
O86      O      0.286650000000     0.023790000000     0.963210000000    -0.548486   
O87      O      0.282320000000     0.066150000000     0.512190000000    -0.5542     
O88      O      0.291570000000     0.474650000000     0.005000000000    -0.548861   
O89      O      0.238510000000     0.469230000000     0.509960000000    -0.556453   
O90      O      0.229310000000     0.060650000000     0.006770000000    -0.554595   
O91      O      0.234260000000     0.512540000000     0.963200000000    -0.554911   
O92      O      0.233560000000     0.015210000000     0.553440000000    -0.545062   
O93      O      0.514020000000     0.237510000000     0.550660000000    -0.546625   
O94      O      0.998330000000     0.242090000000     0.961250000000    -0.542484   
O95      O      0.050990000000     0.240290000000     0.498160000000    -0.554073   
O96      O      0.461310000000     0.238560000000     0.012220000000    -0.556925   
O97      O      0.460230000000     0.292690000000     0.512460000000    -0.555943   
O98      O      0.051240000000     0.293760000000     0.006430000000    -0.554253   
O99      O      0.502970000000     0.295950000000     0.964030000000    -0.559018   
O100     O      0.008620000000     0.291250000000     0.553490000000    -0.568396   
O101     O      0.259380000000     0.229940000000     0.522820000000    -0.53655    
O102     O      0.253480000000     0.320960000000     0.511080000000    -0.546129   
O103     O      0.211210000000     0.273880000000     0.515570000000    -0.556303   
O104     O      0.301880000000     0.279140000000     0.518350000000    -0.541619   
O105     O      0.304140000000     0.266200000000     0.966740000000    -0.558401   
O106     O      0.213140000000     0.269520000000     0.962550000000    -0.5428     
O107     O      0.260870000000     0.314110000000     0.958800000000    -0.552832   
O108     O      0.256140000000     0.222790000000     0.970210000000    -0.556525   
O109     O      0.347080000000     0.323520000000     0.524740000000    -0.276473   
O110     O      0.163050000000     0.230290000000     0.950640000000    -0.279761   
O111     O      0.204720000000     0.362970000000     0.508830000000    -0.281654   
O112     O      0.294640000000     0.182150000000     0.545210000000    -0.273789   
O113     O      0.219910000000     0.468890000000     0.851740000000    -0.26727    
O114     O      0.220180000000     0.473240000000     0.599000000000    -0.278629   
O115     O      0.037910000000     0.310900000000     0.850010000000    -0.283514   
O116     O      0.485430000000     0.308870000000     0.666960000000    -0.281555   
O117     O      0.169710000000     0.498290000000     0.804240000000    -0.275658   
O118     O      0.419780000000     0.451890000000     0.727430000000    -0.283687   
O119     O      0.069300000000     0.419350000000     0.783270000000    -0.278234   
O120     O      0.040820000000     0.167360000000     0.807420000000    -0.281195   
O121     O      0.999090000000     0.558220000000     0.238980000000    -0.550407   
O122     O      0.518960000000     0.969680000000     0.225230000000    -0.555685   
O123     O      0.465400000000     0.503320000000     0.233490000000    -0.546102   
O124     O      0.054470000000     0.024900000000     0.231020000000    -0.542986   
O125     O      0.057890000000     0.514010000000     0.282890000000    -0.562908   
O126     O      0.468500000000     0.000080000000     0.286530000000    -0.563365   
O127     O      0.021040000000     0.961850000000     0.277860000000    -0.544297   
O128     O      0.506870000000     0.551640000000     0.291200000000    -0.562824   
O129     O      0.038580000000     0.805470000000     0.257930000000    -0.549385   
O130     O      0.035370000000     0.713930000000     0.263970000000    -0.545156   
O131     O      0.039260000000     0.755860000000     0.214990000000    -0.549929   
O132     O      0.034510000000     0.763490000000     0.305070000000    -0.54211    
O133     O      0.481080000000     0.759980000000     0.302000000000    -0.55882    
O134     O      0.486120000000     0.762510000000     0.212100000000    -0.556023   
O135     O      0.482470000000     0.715360000000     0.255520000000    -0.563062   
O136     O      0.484970000000     0.807280000000     0.257110000000    -0.551433   
O137     O      0.311000000000     0.526540000000     0.263240000000    -0.554502   
O138     O      0.221920000000     0.540890000000     0.248260000000    -0.546932   
O139     O      0.260850000000     0.537970000000     0.300040000000    -0.55611    
O140     O      0.273790000000     0.529780000000     0.211060000000    -0.556408   
O141     O      0.258990000000     0.977830000000     0.213570000000    -0.555078   
O142     O      0.255130000000     0.984300000000     0.303880000000    -0.530648   
O143     O      0.212990000000     0.988220000000     0.256960000000    -0.551167   
O144     O      0.302400000000     0.973150000000     0.260690000000    -0.556227   
O145     O      0.287090000000     0.018000000000     0.053600000000    -0.55374    
O146     O      0.286650000000     0.523790000000     0.463210000000    -0.551535   
O147     O      0.282320000000     0.566150000000     0.012190000000    -0.554379   
O148     O      0.291570000000     0.974650000000     0.504990000000    -0.548091   
O149     O      0.238510000000     0.969230000000     0.009960000000    -0.556528   
O150     O      0.229310000000     0.560650000000     0.506770000000    -0.554017   
O151     O      0.234260000000     0.012540000000     0.463210000000    -0.558149   
O152     O      0.233560000000     0.515210000000     0.053440000000    -0.544384   
O153     O      0.514020000000     0.737510000000     0.050660000000    -0.545825   
O154     O      0.998330000000     0.742090000000     0.461250000000    -0.546171   
O155     O      0.050990000000     0.740290000000     0.998160000000    -0.546635   
O156     O      0.461310000000     0.738560000000     0.512220000000    -0.557517   
O157     O      0.460230000000     0.792690000000     0.012460000000    -0.555958   
O158     O      0.051240000000     0.793760000000     0.506430000000    -0.555832   
O159     O      0.502970000000     0.795950000000     0.464030000000    -0.562026   
O160     O      0.008620000000     0.791240000000     0.053490000000    -0.567868   
O161     O      0.259380000000     0.729940000000     0.022820000000    -0.540598   
O162     O      0.253480000000     0.820960000000     0.011080000000    -0.54924    
O163     O      0.211210000000     0.773880000000     0.015580000000    -0.559316   
O164     O      0.301880000000     0.779140000000     0.018350000000    -0.544634   
O165     O      0.304140000000     0.766200000000     0.466750000000    -0.557285   
O166     O      0.213140000000     0.769520000000     0.462550000000    -0.541526   
O167     O      0.260870000000     0.814110000000     0.458800000000    -0.551262   
O168     O      0.256140000000     0.722790000000     0.470210000000    -0.55454    
O169     O      0.347080000000     0.823530000000     0.024740000000    -0.275908   
O170     O      0.163050000000     0.730290000000     0.450640000000    -0.279937   
O171     O      0.204720000000     0.862980000000     0.008830000000    -0.285804   
O172     O      0.294640000000     0.682150000000     0.045210000000    -0.274204   
O173     O      0.219910000000     0.968890000000     0.351750000000    -0.267421   
O174     O      0.220180000000     0.973240000000     0.099000000000    -0.278688   
O175     O      0.037910000000     0.810900000000     0.350010000000    -0.283565   
O176     O      0.485430000000     0.808870000000     0.166960000000    -0.281578   
O177     O      0.169710000000     0.998290000000     0.304250000000    -0.275534   
O178     O      0.419780000000     0.951890000000     0.227430000000    -0.283688   
O179     O      0.069300000000     0.919350000000     0.283270000000    -0.278279   
O180     O      0.040820000000     0.667360000000     0.307420000000    -0.281284   
O181     O      0.999090000000     0.558220000000     0.738980000000    -0.55039    
O182     O      0.518960000000     0.969680000000     0.725230000000    -0.555639   
O183     O      0.465400000000     0.503320000000     0.733490000000    -0.546069   
O184     O      0.054470000000     0.024900000000     0.731020000000    -0.542951   
O185     O      0.057890000000     0.514010000000     0.782890000000    -0.562867   
O186     O      0.468500000000     0.000080000000     0.786530000000    -0.563298   
O187     O      0.021040000000     0.961850000000     0.777860000000    -0.544252   
O188     O      0.506870000000     0.551640000000     0.791200000000    -0.562745   
O189     O      0.038580000000     0.805470000000     0.757930000000    -0.549391   
O190     O      0.035370000000     0.713930000000     0.763970000000    -0.545159   
O191     O      0.039260000000     0.755860000000     0.714990000000    -0.549931   
O192     O      0.034510000000     0.763490000000     0.805070000000    -0.542105   
O193     O      0.481080000000     0.759980000000     0.802000000000    -0.558797   
O194     O      0.486120000000     0.762510000000     0.712100000000    -0.556025   
O195     O      0.482470000000     0.715360000000     0.755520000000    -0.563053   
O196     O      0.484970000000     0.807280000000     0.757110000000    -0.551424   
O197     O      0.311000000000     0.526540000000     0.763240000000    -0.554492   
O198     O      0.221920000000     0.540890000000     0.748260000000    -0.546926   
O199     O      0.260850000000     0.537970000000     0.800040000000    -0.556089   
O200     O      0.273790000000     0.529780000000     0.711060000000    -0.556407   
O201     O      0.258990000000     0.977830000000     0.713570000000    -0.555081   
O202     O      0.255130000000     0.984300000000     0.803880000000    -0.530625   
O203     O      0.212990000000     0.988220000000     0.756960000000    -0.551164   
O204     O      0.302400000000     0.973150000000     0.760690000000    -0.556217   
O205     O      0.287090000000     0.018000000000     0.553600000000    -0.554346   
O206     O      0.286650000000     0.523790000000     0.963210000000    -0.548486   
O207     O      0.282320000000     0.566150000000     0.512190000000    -0.554223   
O208     O      0.291570000000     0.974650000000     0.005000000000    -0.548758   
O209     O      0.238510000000     0.969230000000     0.509960000000    -0.556357   
O210     O      0.229310000000     0.560650000000     0.006770000000    -0.554616   
O211     O      0.234260000000     0.012540000000     0.963200000000    -0.554928   
O212     O      0.233560000000     0.515210000000     0.553440000000    -0.545045   
O213     O      0.514020000000     0.737510000000     0.550660000000    -0.546713   
O214     O      0.998330000000     0.742090000000     0.961250000000    -0.542609   
O215     O      0.050990000000     0.740290000000     0.498160000000    -0.554085   
O216     O      0.461310000000     0.738560000000     0.012220000000    -0.556934   
O217     O      0.460230000000     0.792690000000     0.512460000000    -0.555941   
O218     O      0.051240000000     0.793760000000     0.006430000000    -0.554256   
O219     O      0.502970000000     0.795950000000     0.964030000000    -0.558918   
O220     O      0.008620000000     0.791240000000     0.553490000000    -0.56858    
O221     O      0.259380000000     0.729940000000     0.522820000000    -0.536675   
O222     O      0.253480000000     0.820960000000     0.511080000000    -0.545945   
O223     O      0.211210000000     0.773880000000     0.515570000000    -0.556298   
O224     O      0.301880000000     0.779140000000     0.518350000000    -0.54157    
O225     O      0.304140000000     0.766200000000     0.966740000000    -0.558425   
O226     O      0.213140000000     0.769520000000     0.962550000000    -0.542797   
O227     O      0.260870000000     0.814110000000     0.958800000000    -0.5528     
O228     O      0.256140000000     0.722790000000     0.970210000000    -0.556515   
O229     O      0.347080000000     0.823530000000     0.524740000000    -0.276556   
O230     O      0.163050000000     0.730290000000     0.950640000000    -0.279728   
O231     O      0.204720000000     0.862980000000     0.508830000000    -0.281803   
O232     O      0.294640000000     0.682150000000     0.545210000000    -0.273796   
O233     O      0.219910000000     0.968890000000     0.851740000000    -0.267294   
O234     O      0.220180000000     0.973240000000     0.599000000000    -0.278637   
O235     O      0.037910000000     0.810900000000     0.850010000000    -0.283527   
O236     O      0.485430000000     0.808870000000     0.666960000000    -0.281569   
O237     O      0.169710000000     0.998290000000     0.804240000000    -0.275501   
O238     O      0.419780000000     0.951890000000     0.727430000000    -0.283684   
O239     O      0.069300000000     0.919350000000     0.783270000000    -0.278217   
O240     O      0.040820000000     0.667360000000     0.807420000000    -0.281191   
O241     O      0.499090000000     0.058220000000     0.238980000000    -0.557033   
O242     O      0.018960000000     0.469680000000     0.225230000000    -0.554685   
O243     O      0.965400000000     0.003320000000     0.233490000000    -0.538198   
O244     O      0.554470000000     0.524900000000     0.231020000000    -0.545091   
O245     O      0.557890000000     0.014010000000     0.282890000000    -0.564156   
O246     O      0.968500000000     0.500080000000     0.286530000000    -0.555809   
O247     O      0.521040000000     0.461840000000     0.277860000000    -0.543996   
O248     O      0.006870000000     0.051640000000     0.291200000000    -0.570596   
O249     O      0.538580000000     0.305470000000     0.257930000000    -0.552613   
O250     O      0.535370000000     0.213930000000     0.263970000000    -0.548403   
O251     O      0.539260000000     0.255860000000     0.214990000000    -0.553049   
O252     O      0.534510000000     0.263500000000     0.305070000000    -0.545364   
O253     O      0.981080000000     0.259980000000     0.302000000000    -0.550988   
O254     O      0.986120000000     0.262520000000     0.212100000000    -0.548329   
O255     O      0.982470000000     0.215360000000     0.255520000000    -0.555293   
O256     O      0.984970000000     0.307280000000     0.257110000000    -0.543695   
O257     O      0.810990000000     0.026540000000     0.263240000000    -0.554671   
O258     O      0.721920000000     0.040890000000     0.248260000000    -0.546937   
O259     O      0.760850000000     0.037970000000     0.300040000000    -0.556014   
O260     O      0.773790000000     0.029780000000     0.211060000000    -0.556337   
O261     O      0.758980000000     0.477830000000     0.213570000000    -0.555105   
O262     O      0.755130000000     0.484310000000     0.303880000000    -0.530902   
O263     O      0.712990000000     0.488220000000     0.256960000000    -0.551262   
O264     O      0.802400000000     0.473150000000     0.260690000000    -0.556145   
O265     O      0.787090000000     0.518000000000     0.053600000000    -0.553583   
O266     O      0.786650000000     0.023790000000     0.463210000000    -0.551483   
O267     O      0.782320000000     0.066150000000     0.012190000000    -0.554229   
O268     O      0.791570000000     0.474650000000     0.504990000000    -0.548006   
O269     O      0.738510000000     0.469230000000     0.009960000000    -0.556553   
O270     O      0.729310000000     0.060650000000     0.506770000000    -0.553879   
O271     O      0.734260000000     0.512540000000     0.463210000000    -0.557928   
O272     O      0.733560000000     0.015210000000     0.053440000000    -0.544305   
O273     O      0.014020000000     0.237510000000     0.050660000000    -0.544201   
O274     O      0.498330000000     0.242090000000     0.461250000000    -0.552528   
O275     O      0.551000000000     0.240290000000     0.998160000000    -0.548721   
O276     O      0.961310000000     0.238560000000     0.512220000000    -0.549272   
O277     O      0.960230000000     0.292690000000     0.012460000000    -0.549062   
O278     O      0.551240000000     0.293760000000     0.506430000000    -0.557136   
O279     O      0.002970000000     0.295950000000     0.464030000000    -0.569838   
O280     O      0.508620000000     0.291250000000     0.053490000000    -0.566583   
O281     O      0.759380000000     0.229940000000     0.022820000000    -0.540424   
O282     O      0.753480000000     0.320960000000     0.011080000000    -0.549392   
O283     O      0.711210000000     0.273880000000     0.015580000000    -0.559301   
O284     O      0.801880000000     0.279140000000     0.018350000000    -0.544611   
O285     O      0.804140000000     0.266200000000     0.466750000000    -0.557193   
O286     O      0.713140000000     0.269520000000     0.462550000000    -0.541535   
O287     O      0.760870000000     0.314110000000     0.458800000000    -0.551265   
O288     O      0.756140000000     0.222790000000     0.470210000000    -0.554528   
O289     O      0.847080000000     0.323520000000     0.024740000000    -0.275716   
O290     O      0.663050000000     0.230290000000     0.450640000000    -0.28       
O291     O      0.704720000000     0.362970000000     0.008830000000    -0.285635   
O292     O      0.794640000000     0.182150000000     0.045210000000    -0.274167   
O293     O      0.719910000000     0.468890000000     0.351750000000    -0.267412   
O294     O      0.720180000000     0.473240000000     0.099000000000    -0.278626   
O295     O      0.537910000000     0.310900000000     0.350010000000    -0.281316   
O296     O      0.985430000000     0.308870000000     0.166960000000    -0.281599   
O297     O      0.669710000000     0.498290000000     0.304250000000    -0.275679   
O298     O      0.919780000000     0.451890000000     0.227430000000    -0.282687   
O299     O      0.569300000000     0.419350000000     0.283270000000    -0.278227   
O300     O      0.540820000000     0.167360000000     0.307420000000    -0.279069   
O301     O      0.499090000000     0.058220000000     0.738980000000    -0.557003   
O302     O      0.018960000000     0.469680000000     0.725230000000    -0.554642   
O303     O      0.965400000000     0.003320000000     0.733490000000    -0.538182   
O304     O      0.554470000000     0.524900000000     0.731020000000    -0.545052   
O305     O      0.557890000000     0.014010000000     0.782890000000    -0.564111   
O306     O      0.968500000000     0.500080000000     0.786530000000    -0.555767   
O307     O      0.521040000000     0.461840000000     0.777860000000    -0.543951   
O308     O      0.006870000000     0.051640000000     0.791200000000    -0.570495   
O309     O      0.538580000000     0.305470000000     0.757930000000    -0.55261    
O310     O      0.535370000000     0.213930000000     0.763970000000    -0.548398   
O311     O      0.539260000000     0.255860000000     0.714990000000    -0.553044   
O312     O      0.534510000000     0.263500000000     0.805070000000    -0.545349   
O313     O      0.981080000000     0.259980000000     0.802000000000    -0.550992   
O314     O      0.986120000000     0.262520000000     0.712100000000    -0.548346   
O315     O      0.982470000000     0.215360000000     0.755520000000    -0.555305   
O316     O      0.984970000000     0.307280000000     0.757110000000    -0.543707   
O317     O      0.810990000000     0.026540000000     0.763240000000    -0.554661   
O318     O      0.721920000000     0.040890000000     0.748260000000    -0.546932   
O319     O      0.760850000000     0.037970000000     0.800040000000    -0.555993   
O320     O      0.773790000000     0.029780000000     0.711060000000    -0.556336   
O321     O      0.758980000000     0.477830000000     0.713570000000    -0.555108   
O322     O      0.755130000000     0.484310000000     0.803880000000    -0.530879   
O323     O      0.712990000000     0.488220000000     0.756960000000    -0.551258   
O324     O      0.802400000000     0.473150000000     0.760690000000    -0.556136   
O325     O      0.787090000000     0.518000000000     0.553600000000    -0.554185   
O326     O      0.786650000000     0.023790000000     0.963210000000    -0.548456   
O327     O      0.782320000000     0.066150000000     0.512190000000    -0.554073   
O328     O      0.791570000000     0.474650000000     0.005000000000    -0.54867    
O329     O      0.738510000000     0.469230000000     0.509960000000    -0.556382   
O330     O      0.729310000000     0.060650000000     0.006770000000    -0.554475   
O331     O      0.734260000000     0.512540000000     0.963200000000    -0.554726   
O332     O      0.733560000000     0.015210000000     0.553440000000    -0.544962   
O333     O      0.014020000000     0.237510000000     0.550660000000    -0.545084   
O334     O      0.498330000000     0.242090000000     0.961250000000    -0.54893    
O335     O      0.551000000000     0.240290000000     0.498160000000    -0.556148   
O336     O      0.961310000000     0.238560000000     0.012220000000    -0.548685   
O337     O      0.960230000000     0.292690000000     0.512460000000    -0.54905    
O338     O      0.551240000000     0.293760000000     0.006430000000    -0.555568   
O339     O      0.002970000000     0.295950000000     0.964030000000    -0.566675   
O340     O      0.508620000000     0.291250000000     0.553490000000    -0.567292   
O341     O      0.759380000000     0.229940000000     0.522820000000    -0.536526   
O342     O      0.753480000000     0.320960000000     0.511080000000    -0.546117   
O343     O      0.711210000000     0.273880000000     0.515570000000    -0.556301   
O344     O      0.801880000000     0.279140000000     0.518350000000    -0.541571   
O345     O      0.804140000000     0.266200000000     0.966740000000    -0.558324   
O346     O      0.713140000000     0.269520000000     0.962550000000    -0.542798   
O347     O      0.760870000000     0.314110000000     0.958800000000    -0.552793   
O348     O      0.756140000000     0.222790000000     0.970210000000    -0.55649    
O349     O      0.847080000000     0.323520000000     0.524740000000    -0.276357   
O350     O      0.663050000000     0.230290000000     0.950640000000    -0.279792   
O351     O      0.704720000000     0.362970000000     0.508830000000    -0.281658   
O352     O      0.794640000000     0.182150000000     0.545210000000    -0.273762   
O353     O      0.719910000000     0.468890000000     0.851740000000    -0.267285   
O354     O      0.720180000000     0.473240000000     0.599000000000    -0.278576   
O355     O      0.537910000000     0.310900000000     0.850010000000    -0.281288   
O356     O      0.985430000000     0.308870000000     0.666960000000    -0.281593   
O357     O      0.669710000000     0.498290000000     0.804240000000    -0.275646   
O358     O      0.919780000000     0.451890000000     0.727430000000    -0.282686   
O359     O      0.569300000000     0.419350000000     0.783270000000    -0.278166   
O360     O      0.540820000000     0.167360000000     0.807420000000    -0.278985   
O361     O      0.499090000000     0.558220000000     0.238980000000    -0.55705    
O362     O      0.018960000000     0.969680000000     0.225230000000    -0.554568   
O363     O      0.965400000000     0.503320000000     0.233490000000    -0.538054   
O364     O      0.554470000000     0.024900000000     0.231020000000    -0.545091   
O365     O      0.557890000000     0.514010000000     0.282890000000    -0.564109   
O366     O      0.968500000000     0.000080000000     0.286530000000    -0.55599    
O367     O      0.521040000000     0.961850000000     0.277860000000    -0.544067   
O368     O      0.006870000000     0.551640000000     0.291200000000    -0.570555   
O369     O      0.538580000000     0.805470000000     0.257930000000    -0.552604   
O370     O      0.535370000000     0.713930000000     0.263970000000    -0.548388   
O371     O      0.539260000000     0.755860000000     0.214990000000    -0.553067   
O372     O      0.534510000000     0.763490000000     0.305070000000    -0.545395   
O373     O      0.981080000000     0.759980000000     0.302000000000    -0.550997   
O374     O      0.986120000000     0.762510000000     0.212100000000    -0.548368   
O375     O      0.982470000000     0.715360000000     0.255520000000    -0.555276   
O376     O      0.984970000000     0.807280000000     0.257110000000    -0.543684   
O377     O      0.810990000000     0.526540000000     0.263240000000    -0.554591   
O378     O      0.721920000000     0.540890000000     0.248260000000    -0.546983   
O379     O      0.760850000000     0.537970000000     0.300040000000    -0.556131   
O380     O      0.773790000000     0.529780000000     0.211060000000    -0.556381   
O381     O      0.758980000000     0.977830000000     0.213570000000    -0.554996   
O382     O      0.755130000000     0.984300000000     0.303880000000    -0.530616   
O383     O      0.712990000000     0.988220000000     0.256960000000    -0.551153   
O384     O      0.802400000000     0.973150000000     0.260690000000    -0.556161   
O385     O      0.787090000000     0.018000000000     0.053600000000    -0.55359    
O386     O      0.786650000000     0.523790000000     0.463210000000    -0.551482   
O387     O      0.782320000000     0.566150000000     0.012190000000    -0.554251   
O388     O      0.791570000000     0.974650000000     0.504990000000    -0.547905   
O389     O      0.738510000000     0.969230000000     0.009960000000    -0.556457   
O390     O      0.729310000000     0.560650000000     0.506770000000    -0.5539     
O391     O      0.734260000000     0.012540000000     0.463210000000    -0.557945   
O392     O      0.733560000000     0.515210000000     0.053440000000    -0.544289   
O393     O      0.014020000000     0.737510000000     0.050660000000    -0.544288   
O394     O      0.498330000000     0.742090000000     0.461250000000    -0.552653   
O395     O      0.551000000000     0.740290000000     0.998160000000    -0.548734   
O396     O      0.961310000000     0.738560000000     0.512220000000    -0.549281   
O397     O      0.960230000000     0.792690000000     0.012460000000    -0.54906    
O398     O      0.551240000000     0.793760000000     0.506430000000    -0.557139   
O399     O      0.002970000000     0.795950000000     0.464030000000    -0.569732   
O400     O      0.508620000000     0.791240000000     0.053490000000    -0.566768   
O401     O      0.759380000000     0.729940000000     0.022820000000    -0.540548   
O402     O      0.753480000000     0.820960000000     0.011080000000    -0.549208   
O403     O      0.711210000000     0.773880000000     0.015580000000    -0.559296   
O404     O      0.801880000000     0.779140000000     0.018350000000    -0.54456    
O405     O      0.804140000000     0.766200000000     0.466750000000    -0.557218   
O406     O      0.713140000000     0.769520000000     0.462550000000    -0.541532   
O407     O      0.760870000000     0.814110000000     0.458800000000    -0.551232   
O408     O      0.756140000000     0.722790000000     0.470210000000    -0.554519   
O409     O      0.847080000000     0.823530000000     0.024740000000    -0.2758     
O410     O      0.663050000000     0.730290000000     0.450640000000    -0.279967   
O411     O      0.704720000000     0.862980000000     0.008830000000    -0.285786   
O412     O      0.794640000000     0.682150000000     0.045210000000    -0.274174   
O413     O      0.719910000000     0.968890000000     0.351750000000    -0.267436   
O414     O      0.720180000000     0.973240000000     0.099000000000    -0.278635   
O415     O      0.537910000000     0.810900000000     0.350010000000    -0.28133    
O416     O      0.985430000000     0.808870000000     0.166960000000    -0.281613   
O417     O      0.669710000000     0.998290000000     0.304250000000    -0.275522   
O418     O      0.919780000000     0.951890000000     0.227430000000    -0.282684   
O419     O      0.569300000000     0.919350000000     0.283270000000    -0.27821    
O420     O      0.540820000000     0.667360000000     0.307420000000    -0.279064   
O421     O      0.499090000000     0.558220000000     0.738980000000    -0.557019   
O422     O      0.018960000000     0.969680000000     0.725230000000    -0.554525   
O423     O      0.965400000000     0.503320000000     0.733490000000    -0.538039   
O424     O      0.554470000000     0.024900000000     0.731020000000    -0.545052   
O425     O      0.557890000000     0.514010000000     0.782890000000    -0.564065   
O426     O      0.968500000000     0.000080000000     0.786530000000    -0.555948   
O427     O      0.521040000000     0.961850000000     0.777860000000    -0.544023   
O428     O      0.006870000000     0.551640000000     0.791200000000    -0.570455   
O429     O      0.538580000000     0.805470000000     0.757930000000    -0.552602   
O430     O      0.535370000000     0.713930000000     0.763970000000    -0.548383   
O431     O      0.539260000000     0.755860000000     0.714990000000    -0.553062   
O432     O      0.534510000000     0.763490000000     0.805070000000    -0.545381   
O433     O      0.981080000000     0.759980000000     0.802000000000    -0.551001   
O434     O      0.986120000000     0.762510000000     0.712100000000    -0.548385   
O435     O      0.982470000000     0.715360000000     0.755520000000    -0.555288   
O436     O      0.984970000000     0.807280000000     0.757110000000    -0.543697   
O437     O      0.810990000000     0.526540000000     0.763240000000    -0.554581   
O438     O      0.721920000000     0.540890000000     0.748260000000    -0.546977   
O439     O      0.760850000000     0.537970000000     0.800040000000    -0.55611    
O440     O      0.773790000000     0.529780000000     0.711060000000    -0.55638    
O441     O      0.758980000000     0.977830000000     0.713570000000    -0.554999   
O442     O      0.755130000000     0.984300000000     0.803880000000    -0.530593   
O443     O      0.712990000000     0.988220000000     0.756960000000    -0.551149   
O444     O      0.802400000000     0.973150000000     0.760690000000    -0.556152   
O445     O      0.787090000000     0.018000000000     0.553600000000    -0.554192   
O446     O      0.786650000000     0.523790000000     0.963210000000    -0.548455   
O447     O      0.782320000000     0.566150000000     0.512190000000    -0.554095   
O448     O      0.791570000000     0.974650000000     0.005000000000    -0.548568   
O449     O      0.738510000000     0.969230000000     0.509960000000    -0.556286   
O450     O      0.729310000000     0.560650000000     0.006770000000    -0.554497   
O451     O      0.734260000000     0.012540000000     0.963200000000    -0.554743   
O452     O      0.733560000000     0.515210000000     0.553440000000    -0.544946   
O453     O      0.014020000000     0.737510000000     0.550660000000    -0.545171   
O454     O      0.498330000000     0.742090000000     0.961250000000    -0.549054   
O455     O      0.551000000000     0.740290000000     0.498160000000    -0.55616    
O456     O      0.961310000000     0.738560000000     0.012220000000    -0.548694   
O457     O      0.960230000000     0.792690000000     0.512460000000    -0.549049   
O458     O      0.551240000000     0.793760000000     0.006430000000    -0.555571   
O459     O      0.002970000000     0.795950000000     0.964030000000    -0.566569   
O460     O      0.508620000000     0.791240000000     0.553490000000    -0.567477   
O461     O      0.759380000000     0.729940000000     0.522820000000    -0.536651   
O462     O      0.753480000000     0.820960000000     0.511080000000    -0.545934   
O463     O      0.711210000000     0.773880000000     0.515570000000    -0.556296   
O464     O      0.801880000000     0.779140000000     0.518350000000    -0.541521   
O465     O      0.804140000000     0.766200000000     0.966740000000    -0.558348   
O466     O      0.713140000000     0.769520000000     0.962550000000    -0.542794   
O467     O      0.760870000000     0.814110000000     0.958800000000    -0.552761   
O468     O      0.756140000000     0.722790000000     0.970210000000    -0.55648    
O469     O      0.847080000000     0.823530000000     0.524740000000    -0.27644    
O470     O      0.663050000000     0.730290000000     0.950640000000    -0.279759   
O471     O      0.704720000000     0.862980000000     0.508830000000    -0.281807   
O472     O      0.794640000000     0.682150000000     0.545210000000    -0.273768   
O473     O      0.719910000000     0.968890000000     0.851740000000    -0.267309   
O474     O      0.720180000000     0.973240000000     0.599000000000    -0.278584   
O475     O      0.537910000000     0.810900000000     0.850010000000    -0.281301   
O476     O      0.985430000000     0.808870000000     0.666960000000    -0.281606   
O477     O      0.669710000000     0.998290000000     0.804240000000    -0.275489   
O478     O      0.919780000000     0.951890000000     0.727430000000    -0.282682   
O479     O      0.569300000000     0.919350000000     0.783270000000    -0.278149   
O480     O      0.540820000000     0.667360000000     0.807420000000    -0.278981   
V1       V      0.509520000000     0.014350000000     0.229990000000     1.375      
V2       V      0.513610000000     0.506450000000     0.286700000000     1.42267    
V3       V      0.039150000000     0.259580000000     0.260430000000     1.38686    
V4       V      0.481460000000     0.261330000000     0.256680000000     1.41018    
V5       V      0.267140000000     0.036020000000     0.255370000000     1.38228    
V6       V      0.257120000000     0.478670000000     0.258850000000     1.40394    
V7       V      0.289120000000     0.020850000000     0.008440000000     1.37042    
V8       V      0.231720000000     0.014420000000     0.508290000000     1.40232    
V9       V      0.006220000000     0.237360000000     0.005590000000     1.3493     
V10      V      0.005720000000     0.295600000000     0.509090000000     1.40034    
V11      V      0.256480000000     0.276050000000     0.019140000000     1.41103    
V12      V      0.258730000000     0.267930000000     0.462380000000     1.38866    
V13      V      0.509520000000     0.014350000000     0.729990000000     1.37504    
V14      V      0.513610000000     0.506450000000     0.786700000000     1.42293    
V15      V      0.039150000000     0.259580000000     0.760430000000     1.38688    
V16      V      0.481460000000     0.261330000000     0.756680000000     1.41017    
V17      V      0.267140000000     0.036020000000     0.755370000000     1.38227    
V18      V      0.257120000000     0.478670000000     0.758850000000     1.40392    
V19      V      0.289120000000     0.020850000000     0.508440000000     1.37437    
V20      V      0.231720000000     0.014420000000     0.008290000000     1.39778    
V21      V      0.006220000000     0.237360000000     0.505580000000     1.35843    
V22      V      0.005720000000     0.295600000000     0.009090000000     1.39645    
V23      V      0.256480000000     0.276050000000     0.519150000000     1.41333    
V24      V      0.258730000000     0.267930000000     0.962380000000     1.39384    
V25      V      0.509520000000     0.514350000000     0.229990000000     1.37516    
V26      V      0.513610000000     0.006450000000     0.286700000000     1.42287    
V27      V      0.039150000000     0.759580000000     0.260430000000     1.38689    
V28      V      0.481460000000     0.761330000000     0.256680000000     1.41019    
V29      V      0.267140000000     0.536020000000     0.255370000000     1.38245    
V30      V      0.257120000000     0.978670000000     0.258850000000     1.404      
V31      V      0.289120000000     0.520850000000     0.008440000000     1.37054    
V32      V      0.231720000000     0.514420000000     0.508290000000     1.40245    
V33      V      0.006220000000     0.737360000000     0.005590000000     1.34939    
V34      V      0.005720000000     0.795600000000     0.509090000000     1.40033    
V35      V      0.256480000000     0.776040000000     0.019140000000     1.41096    
V36      V      0.258730000000     0.767930000000     0.462380000000     1.38865    
V37      V      0.509520000000     0.514350000000     0.729990000000     1.3752     
V38      V      0.513610000000     0.006450000000     0.786700000000     1.42313    
V39      V      0.039150000000     0.759580000000     0.760430000000     1.38691    
V40      V      0.481460000000     0.761330000000     0.756680000000     1.41018    
V41      V      0.267140000000     0.536020000000     0.755370000000     1.38245    
V42      V      0.257120000000     0.978670000000     0.758850000000     1.40397    
V43      V      0.289120000000     0.520850000000     0.508440000000     1.37449    
V44      V      0.231720000000     0.514420000000     0.008290000000     1.39792    
V45      V      0.006220000000     0.737360000000     0.505580000000     1.35852    
V46      V      0.005720000000     0.795600000000     0.009090000000     1.39645    
V47      V      0.256480000000     0.776040000000     0.519150000000     1.41326    
V48      V      0.258730000000     0.767930000000     0.962380000000     1.39383    
V49      V      0.009520000000     0.014350000000     0.229990000000     1.3553     
V50      V      0.013620000000     0.506450000000     0.286700000000     1.41541    
V51      V      0.539150000000     0.259580000000     0.260430000000     1.39914    
V52      V      0.981460000000     0.261330000000     0.256680000000     1.41637    
V53      V      0.767140000000     0.036020000000     0.255370000000     1.38261    
V54      V      0.757120000000     0.478670000000     0.258850000000     1.40382    
V55      V      0.789120000000     0.020850000000     0.008440000000     1.37117    
V56      V      0.731720000000     0.014420000000     0.508290000000     1.40235    
V57      V      0.506220000000     0.237360000000     0.005590000000     1.36838    
V58      V      0.505720000000     0.295600000000     0.509090000000     1.40809    
V59      V      0.756480000000     0.276050000000     0.019140000000     1.41102    
V60      V      0.758730000000     0.267930000000     0.462380000000     1.38864    
V61      V      0.009520000000     0.014350000000     0.729990000000     1.35537    
V62      V      0.013620000000     0.506450000000     0.786700000000     1.4157     
V63      V      0.539150000000     0.259580000000     0.760430000000     1.39912    
V64      V      0.981460000000     0.261330000000     0.756680000000     1.41634    
V65      V      0.767140000000     0.036020000000     0.755370000000     1.3826     
V66      V      0.757120000000     0.478670000000     0.758850000000     1.40379    
V67      V      0.789120000000     0.020850000000     0.508440000000     1.3751     
V68      V      0.731720000000     0.014420000000     0.008290000000     1.39784    
V69      V      0.506220000000     0.237360000000     0.505580000000     1.37755    
V70      V      0.505720000000     0.295600000000     0.009090000000     1.40422    
V71      V      0.756480000000     0.276050000000     0.519150000000     1.41332    
V72      V      0.758730000000     0.267930000000     0.962380000000     1.39379    
V73      V      0.009520000000     0.514350000000     0.229990000000     1.35546    
V74      V      0.013620000000     0.006450000000     0.286700000000     1.41561    
V75      V      0.539150000000     0.759580000000     0.260430000000     1.39916    
V76      V      0.981460000000     0.761330000000     0.256680000000     1.41638    
V77      V      0.767140000000     0.536020000000     0.255370000000     1.38278    
V78      V      0.757120000000     0.978670000000     0.258850000000     1.40388    
V79      V      0.789120000000     0.520850000000     0.008440000000     1.37129    
V80      V      0.731720000000     0.514420000000     0.508290000000     1.40249    
V81      V      0.506220000000     0.737360000000     0.005590000000     1.36847    
V82      V      0.505720000000     0.795600000000     0.509090000000     1.40808    
V83      V      0.756480000000     0.776040000000     0.019140000000     1.41095    
V84      V      0.758730000000     0.767930000000     0.462380000000     1.38863    
V85      V      0.009520000000     0.514350000000     0.729990000000     1.35553    
V86      V      0.013620000000     0.006450000000     0.786700000000     1.4159     
V87      V      0.539150000000     0.759580000000     0.760430000000     1.39915    
V88      V      0.981460000000     0.761330000000     0.756680000000     1.41635    
V89      V      0.767140000000     0.536020000000     0.755370000000     1.38278    
V90      V      0.757120000000     0.978670000000     0.758850000000     1.40385    
V91      V      0.789120000000     0.520850000000     0.508440000000     1.37522    
V92      V      0.731720000000     0.514420000000     0.008290000000     1.39797    
V93      V      0.506220000000     0.737360000000     0.505580000000     1.37764    
V94      V      0.505720000000     0.795600000000     0.009090000000     1.40422    
V95      V      0.756480000000     0.776040000000     0.519150000000     1.41325    
V96      V      0.758730000000     0.767930000000     0.962380000000     1.39377    


