data_structure

_audit_creation_method RASPA-1.0
_audit_creation_date 2023-5-19
_audit_author_name 'Poobodin Mano'

_cell_length_a    41.5929
_cell_length_b    40.9324
_cell_length_c    39.9143
_cell_angle_alpha 90
_cell_angle_beta  90
_cell_angle_gamma 90
_cell_volume      67954

_symmetry_cell_setting          triclinic
_symmetry_space_group_name_Hall 'P 1'
_symmetry_space_group_name_H-M  'P 1'
_symmetry_Int_Tables_number     1

_symmetry_equiv_pos_as_xyz 'x,y,z'

loop_
_atom_site_label
_atom_site_type_symbol
_atom_site_fract_x
_atom_site_fract_y
_atom_site_fract_z
_atom_site_charge
C1       C      0.031720000000     0.455930000000     0.301870000000     0.478122   
C2       C      0.016380000000     0.075410000000     0.273440000000     0.475568   
C3       C      0.084550000000     0.024230000000     0.282020000000     0.471463   
C4       C      0.464300000000     0.008370000000     0.292690000000     0.479027   
C5       C      0.987220000000     0.279600000000     0.215660000000     0.479819   
C6       C      0.028250000000     0.255040000000     0.332020000000     0.479811   
C7       C      0.513510000000     0.328000000000     0.284700000000     0.472277   
C8       C      0.502550000000     0.206670000000     0.261760000000     0.472035   
C9       C      0.334990000000     0.004870000000     0.305000000000     0.475034   
C10      C      0.216830000000     0.023570000000     0.282160000000     0.475941   
C11      C      0.288650000000     0.512320000000     0.230600000000     0.473671   
C12      C      0.263760000000     0.516600000000     0.354860000000     0.473776   
C13      C      0.273970000000     0.019910000000     0.096630000000     0.478699   
C14      C      0.231420000000     0.026110000000     0.478390000000     0.481389   
C15      C      0.253980000000     0.085320000000     0.540540000000     0.477193   
C16      C      0.252230000000     0.461850000000     0.534200000000     0.475588   
C17      C      0.997380000000     0.268210000000     0.085860000000     0.472555   
C18      C      0.004330000000     0.263140000000     0.459140000000     0.470905   
C19      C      0.059960000000     0.256640000000     0.526740000000     0.474113   
C20      C      0.439850000000     0.274450000000     0.520280000000     0.475306   
C21      C      0.190830000000     0.265010000000     0.024820000000     0.47679    
C22      C      0.310060000000     0.289670000000     0.028670000000     0.472626   
C23      C      0.262110000000     0.217680000000     0.538520000000     0.475028   
C24      C      0.237960000000     0.336570000000     0.514960000000     0.478704   
C25      C      0.359900000000     0.311550000000     0.502850000000    -0.007635   
C26      C      0.360860000000     0.286300000000     0.060000000000    -0.0207173  
C27      C      0.390600000000     0.292820000000     0.493390000000    -0.00881865 
C28      C      0.388260000000     0.263610000000     0.049330000000     0.0373989  
C29      C      0.108970000000     0.272340000000     0.056370000000    -0.00524298 
C30      C      0.109950000000     0.225120000000     0.516670000000    -0.0197243  
C31      C      0.138810000000     0.286550000000     0.040430000000    -0.00876394 
C32      C      0.141640000000     0.237910000000     0.500980000000     0.0364001  
C33      C      0.272910000000     0.410460000000     0.509350000000    -0.00970532 
C34      C      0.228790000000     0.409560000000     0.052820000000    -0.0212261  
C35      C      0.252740000000     0.387430000000     0.487150000000    -0.00931148 
C36      C      0.208960000000     0.388000000000     0.029680000000     0.0413598  
C37      C      0.287340000000     0.165530000000     0.521780000000    -0.00640511 
C38      C      0.256920000000     0.169400000000     0.075570000000    -0.0206421  
C39      C      0.267930000000     0.135710000000     0.511630000000    -0.00877719 
C40      C      0.237360000000     0.138580000000     0.066540000000     0.0365083  
C41      C      0.247080000000     0.989150000000     0.407730000000    -0.00897037 
C42      C      0.257160000000     0.050110000000     0.405950000000    -0.0212172  
C43      C      0.216730000000     0.495560000000     0.428840000000    -0.00789617 
C44      C      0.225690000000     0.555280000000     0.424990000000     0.0394687  
C45      C      0.312000000000     0.538070000000     0.179490000000    -0.0071988  
C46      C      0.293280000000     0.480390000000     0.178200000000    -0.0200741  
C47      C      0.294170000000     0.045210000000     0.146620000000    -0.0108703  
C48      C      0.272460000000     0.987160000000     0.147490000000     0.0355346  
C49      C      0.498950000000     0.232580000000     0.405660000000    -0.00899171 
C50      C      0.522830000000     0.289250000000     0.406410000000    -0.0207424  
C51      C      0.026160000000     0.221580000000     0.382290000000    -0.00479609 
C52      C      0.050710000000     0.276990000000     0.384430000000     0.0341581  
C53      C      0.982930000000     0.243720000000     0.140760000000    -0.00784135 
C54      C      0.012010000000     0.297750000000     0.137620000000    -0.0206006  
C55      C      0.459690000000     0.258500000000     0.166730000000    -0.00949657 
C56      C      0.488440000000     0.311930000000     0.163080000000     0.0400812  
C57      C      0.134200000000     0.520700000000     0.248250000000    -0.00828661 
C58      C      0.133110000000     0.053930000000     0.300750000000    -0.0199238  
C59      C      0.166320000000     0.505860000000     0.258530000000    -0.00718702 
C60      C      0.167220000000     0.042180000000     0.309610000000     0.0323114  
C61      C      0.385820000000     0.023380000000     0.330650000000    -0.00653404 
C62      C      0.383600000000     0.470630000000     0.299080000000    -0.0209301  
C63      C      0.414670000000     0.034320000000     0.310120000000    -0.0075226  
C64      C      0.412460000000     0.481180000000     0.277420000000     0.037656   
C65      C      0.038960000000     0.379810000000     0.268010000000    -0.00832741 
C66      C      0.495060000000     0.379340000000     0.311750000000    -0.0212252  
C67      C      0.057870000000     0.404010000000     0.289140000000    -0.00427591 
C68      C      0.514140000000     0.405080000000     0.332060000000     0.0347164  
C69      C      0.474040000000     0.154260000000     0.270200000000    -0.00963076 
C70      C      0.020640000000     0.157200000000     0.230940000000    -0.0200349  
C71      C      0.489690000000     0.125780000000     0.288680000000    -0.00572695 
C72      C      0.035470000000     0.126540000000     0.247000000000     0.0348305  
C73      C      0.031720000000     0.455930000000     0.801870000000     0.47817    
C74      C      0.016380000000     0.075410000000     0.773440000000     0.475601   
C75      C      0.084550000000     0.024230000000     0.782030000000     0.471502   
C76      C      0.464300000000     0.008370000000     0.792690000000     0.479083   
C77      C      0.987220000000     0.279600000000     0.715660000000     0.479758   
C78      C      0.028250000000     0.255040000000     0.832020000000     0.479861   
C79      C      0.513510000000     0.328000000000     0.784700000000     0.472262   
C80      C      0.502550000000     0.206670000000     0.761770000000     0.472018   
C81      C      0.334990000000     0.004870000000     0.805000000000     0.475034   
C82      C      0.216830000000     0.023570000000     0.782160000000     0.475943   
C83      C      0.288650000000     0.512320000000     0.730600000000     0.473671   
C84      C      0.263760000000     0.516600000000     0.854860000000     0.473776   
C85      C      0.273970000000     0.019910000000     0.596630000000     0.478697   
C86      C      0.231420000000     0.026110000000     0.978380000000     0.481348   
C87      C      0.253980000000     0.085320000000     0.040540000000     0.477192   
C88      C      0.252230000000     0.461850000000     0.034190000000     0.475576   
C89      C      0.997380000000     0.268210000000     0.585860000000     0.472513   
C90      C      0.004330000000     0.263140000000     0.959140000000     0.470858   
C91      C      0.059960000000     0.256640000000     0.026740000000     0.474106   
C92      C      0.439850000000     0.274450000000     0.020270000000     0.475293   
C93      C      0.190830000000     0.265010000000     0.524820000000     0.476824   
C94      C      0.310060000000     0.289670000000     0.528670000000     0.472625   
C95      C      0.262110000000     0.217680000000     0.038520000000     0.475027   
C96      C      0.237960000000     0.336570000000     0.014960000000     0.478674   
C97      C      0.359900000000     0.311550000000     0.002850000000    -0.00764494 
C98      C      0.360860000000     0.286300000000     0.560000000000    -0.0207148  
C99      C      0.390600000000     0.292820000000     0.993380000000    -0.00889481 
C100     C      0.388260000000     0.263610000000     0.549330000000     0.0373902  
C101     C      0.108970000000     0.272340000000     0.556370000000    -0.00524304 
C102     C      0.109950000000     0.225120000000     0.016670000000    -0.0197452  
C103     C      0.138810000000     0.286550000000     0.540430000000    -0.00876203 
C104     C      0.141640000000     0.237910000000     0.000980000000     0.0363534  
C105     C      0.272910000000     0.410460000000     0.009350000000    -0.00977913 
C106     C      0.228790000000     0.409560000000     0.552820000000    -0.0212311  
C107     C      0.252740000000     0.387430000000     0.987150000000    -0.00925394 
C108     C      0.208960000000     0.388000000000     0.529680000000     0.0413619  
C109     C      0.287340000000     0.165530000000     0.021780000000    -0.00647997 
C110     C      0.256920000000     0.169400000000     0.575570000000    -0.0206377  
C111     C      0.267930000000     0.135710000000     0.011640000000    -0.00868671 
C112     C      0.237360000000     0.138580000000     0.566540000000     0.0365051  
C113     C      0.247080000000     0.989150000000     0.907730000000    -0.00897453 
C114     C      0.257160000000     0.050110000000     0.905950000000    -0.021221   
C115     C      0.216730000000     0.495560000000     0.928840000000    -0.0078848  
C116     C      0.225690000000     0.555280000000     0.924990000000     0.0394784  
C117     C      0.312000000000     0.538070000000     0.679490000000    -0.00719898 
C118     C      0.293280000000     0.480390000000     0.678200000000    -0.0200744  
C119     C      0.294170000000     0.045210000000     0.646620000000    -0.0108702  
C120     C      0.272460000000     0.987160000000     0.647490000000     0.0355356  
C121     C      0.498950000000     0.232580000000     0.905660000000    -0.0089861  
C122     C      0.522830000000     0.289250000000     0.906410000000    -0.0207474  
C123     C      0.026160000000     0.221580000000     0.882290000000    -0.00479378 
C124     C      0.050710000000     0.276990000000     0.884430000000     0.0341715  
C125     C      0.982930000000     0.243720000000     0.640760000000    -0.00784662 
C126     C      0.012010000000     0.297750000000     0.637610000000    -0.0205766  
C127     C      0.459690000000     0.258500000000     0.666730000000    -0.00949786 
C128     C      0.488440000000     0.311930000000     0.663080000000     0.0400663  
C129     C      0.134200000000     0.520700000000     0.748250000000    -0.00828741 
C130     C      0.133110000000     0.053930000000     0.800750000000    -0.0199462  
C131     C      0.166320000000     0.505860000000     0.758530000000    -0.00716118 
C132     C      0.167220000000     0.042180000000     0.809610000000     0.0323172  
C133     C      0.385820000000     0.023380000000     0.830650000000    -0.00652813 
C134     C      0.383600000000     0.470630000000     0.799080000000    -0.0209401  
C135     C      0.414670000000     0.034320000000     0.810120000000    -0.00754885 
C136     C      0.412460000000     0.481180000000     0.777420000000     0.0376753  
C137     C      0.038960000000     0.379810000000     0.768010000000    -0.00832925 
C138     C      0.495060000000     0.379340000000     0.811750000000    -0.0211953  
C139     C      0.057870000000     0.404010000000     0.789140000000    -0.00427421 
C140     C      0.514140000000     0.405080000000     0.832060000000     0.0347085  
C141     C      0.474040000000     0.154260000000     0.770200000000    -0.00966838 
C142     C      0.020640000000     0.157200000000     0.730940000000    -0.020074   
C143     C      0.489690000000     0.125780000000     0.788680000000    -0.00571568 
C144     C      0.035470000000     0.126540000000     0.747000000000     0.0348404  
C145     C      0.031720000000     0.955930000000     0.301870000000     0.478088   
C146     C      0.016380000000     0.575410000000     0.273440000000     0.475583   
C147     C      0.084550000000     0.524230000000     0.282020000000     0.471517   
C148     C      0.464300000000     0.508370000000     0.292690000000     0.479065   
C149     C      0.987220000000     0.779600000000     0.215660000000     0.479817   
C150     C      0.028250000000     0.755040000000     0.332020000000     0.479809   
C151     C      0.513510000000     0.828000000000     0.284700000000     0.472276   
C152     C      0.502550000000     0.706660000000     0.261760000000     0.471955   
C153     C      0.334990000000     0.504870000000     0.305000000000     0.475508   
C154     C      0.216830000000     0.523570000000     0.282160000000     0.476228   
C155     C      0.288650000000     0.012320000000     0.230600000000     0.473378   
C156     C      0.263760000000     0.016600000000     0.354860000000     0.473488   
C157     C      0.273970000000     0.519910000000     0.096630000000     0.478736   
C158     C      0.231420000000     0.526110000000     0.478390000000     0.481427   
C159     C      0.253980000000     0.585320000000     0.540540000000     0.47721    
C160     C      0.252230000000     0.961850000000     0.534200000000     0.475552   
C161     C      0.997380000000     0.768210000000     0.085860000000     0.472554   
C162     C      0.004330000000     0.763140000000     0.459140000000     0.470907   
C163     C      0.059960000000     0.756640000000     0.526740000000     0.474112   
C164     C      0.439850000000     0.774440000000     0.520280000000     0.475317   
C165     C      0.190830000000     0.765000000000     0.024820000000     0.476761   
C166     C      0.310060000000     0.789670000000     0.028670000000     0.472658   
C167     C      0.262110000000     0.717680000000     0.538520000000     0.475021   
C168     C      0.237960000000     0.836570000000     0.514960000000     0.478706   
C169     C      0.359900000000     0.811550000000     0.502850000000    -0.00765066 
C170     C      0.360860000000     0.786300000000     0.060000000000    -0.0207188  
C171     C      0.390600000000     0.792820000000     0.493390000000    -0.00881291 
C172     C      0.388260000000     0.763610000000     0.049330000000     0.0373968  
C173     C      0.108970000000     0.772340000000     0.056370000000    -0.00524983 
C174     C      0.109950000000     0.725120000000     0.516670000000    -0.0197233  
C175     C      0.138810000000     0.786550000000     0.040430000000    -0.00874923 
C176     C      0.141640000000     0.737910000000     0.500980000000     0.0363913  
C177     C      0.272910000000     0.910460000000     0.509350000000    -0.00970821 
C178     C      0.228790000000     0.909560000000     0.052820000000    -0.0212277  
C179     C      0.252740000000     0.887430000000     0.487150000000    -0.00931024 
C180     C      0.208960000000     0.888000000000     0.029680000000     0.0413586  
C181     C      0.287340000000     0.665530000000     0.521780000000    -0.00640808 
C182     C      0.256920000000     0.669400000000     0.075570000000    -0.0206485  
C183     C      0.267930000000     0.635710000000     0.511630000000    -0.0087744  
C184     C      0.237360000000     0.638570000000     0.066540000000     0.0365418  
C185     C      0.247080000000     0.489150000000     0.407730000000    -0.00908291 
C186     C      0.257160000000     0.550100000000     0.405950000000    -0.0210806  
C187     C      0.216730000000     0.995560000000     0.428840000000    -0.00776066 
C188     C      0.225690000000     0.055280000000     0.424990000000     0.0395069  
C189     C      0.312000000000     0.038070000000     0.179490000000    -0.00722007 
C190     C      0.293280000000     0.980390000000     0.178200000000    -0.0199172  
C191     C      0.294170000000     0.545210000000     0.146620000000    -0.0108565  
C192     C      0.272460000000     0.487160000000     0.147490000000     0.0354346  
C193     C      0.498950000000     0.732580000000     0.405660000000    -0.00894155 
C194     C      0.522830000000     0.789240000000     0.406410000000    -0.020625   
C195     C      0.026160000000     0.721570000000     0.382290000000    -0.00491553 
C196     C      0.050710000000     0.776990000000     0.384430000000     0.0341149  
C197     C      0.982930000000     0.743720000000     0.140760000000    -0.00784259 
C198     C      0.012010000000     0.797750000000     0.137620000000    -0.0205995  
C199     C      0.459690000000     0.758500000000     0.166730000000    -0.00949201 
C200     C      0.488440000000     0.811930000000     0.163080000000     0.0400736  
C201     C      0.134200000000     0.020700000000     0.248250000000    -0.00819563 
C202     C      0.133110000000     0.553930000000     0.300750000000    -0.0199753  
C203     C      0.166320000000     0.005860000000     0.258530000000    -0.00764283 
C204     C      0.167220000000     0.542180000000     0.309610000000     0.0323664  
C205     C      0.385820000000     0.523370000000     0.330650000000    -0.00626807 
C206     C      0.383600000000     0.970630000000     0.299080000000    -0.0209709  
C207     C      0.414670000000     0.534320000000     0.310120000000    -0.00758953 
C208     C      0.412460000000     0.981180000000     0.277420000000     0.0378068  
C209     C      0.038960000000     0.879810000000     0.268010000000    -0.0083317  
C210     C      0.495060000000     0.879340000000     0.311750000000    -0.0212445  
C211     C      0.057870000000     0.904010000000     0.289140000000    -0.00426733 
C212     C      0.514140000000     0.905080000000     0.332060000000     0.0347163  
C213     C      0.474040000000     0.654260000000     0.270200000000    -0.0096065  
C214     C      0.020640000000     0.657200000000     0.230940000000    -0.0200221  
C215     C      0.489690000000     0.625790000000     0.288680000000    -0.00575363 
C216     C      0.035470000000     0.626540000000     0.247000000000     0.034829   
C217     C      0.031720000000     0.955930000000     0.801870000000     0.478136   
C218     C      0.016380000000     0.575410000000     0.773440000000     0.475616   
C219     C      0.084550000000     0.524230000000     0.782030000000     0.471556   
C220     C      0.464300000000     0.508370000000     0.792690000000     0.479121   
C221     C      0.987220000000     0.779600000000     0.715660000000     0.479755   
C222     C      0.028250000000     0.755040000000     0.832020000000     0.479858   
C223     C      0.513510000000     0.828000000000     0.784700000000     0.472261   
C224     C      0.502550000000     0.706660000000     0.761770000000     0.471938   
C225     C      0.334990000000     0.504870000000     0.805000000000     0.475508   
C226     C      0.216830000000     0.523570000000     0.782160000000     0.476229   
C227     C      0.288650000000     0.012320000000     0.730600000000     0.473378   
C228     C      0.263760000000     0.016600000000     0.854860000000     0.473488   
C229     C      0.273970000000     0.519910000000     0.596630000000     0.478734   
C230     C      0.231420000000     0.526110000000     0.978380000000     0.481386   
C231     C      0.253980000000     0.585320000000     0.040540000000     0.477209   
C232     C      0.252230000000     0.961850000000     0.034190000000     0.47554    
C233     C      0.997380000000     0.768210000000     0.585860000000     0.472512   
C234     C      0.004330000000     0.763140000000     0.959140000000     0.47086    
C235     C      0.059960000000     0.756640000000     0.026740000000     0.474104   
C236     C      0.439850000000     0.774440000000     0.020270000000     0.475304   
C237     C      0.190830000000     0.765000000000     0.524820000000     0.476795   
C238     C      0.310060000000     0.789670000000     0.528670000000     0.472657   
C239     C      0.262110000000     0.717680000000     0.038520000000     0.47502    
C240     C      0.237960000000     0.836570000000     0.014960000000     0.478677   
C241     C      0.359900000000     0.811550000000     0.002850000000    -0.00766058 
C242     C      0.360860000000     0.786300000000     0.560000000000    -0.0207163  
C243     C      0.390600000000     0.792820000000     0.993380000000    -0.00888908 
C244     C      0.388260000000     0.763610000000     0.549330000000     0.0373881  
C245     C      0.108970000000     0.772340000000     0.556370000000    -0.00524988 
C246     C      0.109950000000     0.725120000000     0.016670000000    -0.0197442  
C247     C      0.138810000000     0.786550000000     0.540430000000    -0.00874732 
C248     C      0.141640000000     0.737910000000     0.000980000000     0.0363446  
C249     C      0.272910000000     0.910460000000     0.009350000000    -0.00978199 
C250     C      0.228790000000     0.909560000000     0.552820000000    -0.0212327  
C251     C      0.252740000000     0.887430000000     0.987150000000    -0.00925272 
C252     C      0.208960000000     0.888000000000     0.529680000000     0.0413607  
C253     C      0.287340000000     0.665530000000     0.021780000000    -0.00648293 
C254     C      0.256920000000     0.669400000000     0.575570000000    -0.0206442  
C255     C      0.267930000000     0.635710000000     0.011640000000    -0.00868391 
C256     C      0.237360000000     0.638570000000     0.566540000000     0.0365387  
C257     C      0.247080000000     0.489150000000     0.907730000000    -0.00908706 
C258     C      0.257160000000     0.550100000000     0.905950000000    -0.0210844  
C259     C      0.216730000000     0.995560000000     0.928840000000    -0.00774931 
C260     C      0.225690000000     0.055280000000     0.924990000000     0.0395166  
C261     C      0.312000000000     0.038070000000     0.679490000000    -0.00722025 
C262     C      0.293280000000     0.980390000000     0.678200000000    -0.0199176  
C263     C      0.294170000000     0.545210000000     0.646620000000    -0.0108564  
C264     C      0.272460000000     0.487160000000     0.647490000000     0.0354356  
C265     C      0.498950000000     0.732580000000     0.905660000000    -0.00893595 
C266     C      0.522830000000     0.789240000000     0.906410000000    -0.0206299  
C267     C      0.026160000000     0.721570000000     0.882290000000    -0.00491324 
C268     C      0.050710000000     0.776990000000     0.884430000000     0.0341283  
C269     C      0.982930000000     0.743720000000     0.640760000000    -0.00784785 
C270     C      0.012010000000     0.797750000000     0.637610000000    -0.0205755  
C271     C      0.459690000000     0.758500000000     0.666730000000    -0.0094933  
C272     C      0.488440000000     0.811930000000     0.663080000000     0.0400588  
C273     C      0.134200000000     0.020700000000     0.748250000000    -0.00819652 
C274     C      0.133110000000     0.553930000000     0.800750000000    -0.0199977  
C275     C      0.166320000000     0.005860000000     0.758530000000    -0.00761671 
C276     C      0.167220000000     0.542180000000     0.809610000000     0.0323723  
C277     C      0.385820000000     0.523370000000     0.830650000000    -0.00626217 
C278     C      0.383600000000     0.970630000000     0.799080000000    -0.0209809  
C279     C      0.414670000000     0.534320000000     0.810120000000    -0.00761577 
C280     C      0.412460000000     0.981180000000     0.777420000000     0.0378261  
C281     C      0.038960000000     0.879810000000     0.768010000000    -0.00833354 
C282     C      0.495060000000     0.879340000000     0.811750000000    -0.0212146  
C283     C      0.057870000000     0.904010000000     0.789140000000    -0.00426563 
C284     C      0.514140000000     0.905080000000     0.832060000000     0.0347084  
C285     C      0.474040000000     0.654260000000     0.770200000000    -0.00964414 
C286     C      0.020640000000     0.657200000000     0.730940000000    -0.0200612  
C287     C      0.489690000000     0.625790000000     0.788680000000    -0.00574235 
C288     C      0.035470000000     0.626540000000     0.747000000000     0.0348389  
C289     C      0.531720000000     0.455930000000     0.301870000000     0.478153   
C290     C      0.516380000000     0.075410000000     0.273440000000     0.47559    
C291     C      0.584550000000     0.024230000000     0.282020000000     0.471599   
C292     C      0.964300000000     0.008370000000     0.292690000000     0.479013   
C293     C      0.487220000000     0.279600000000     0.215660000000     0.480031   
C294     C      0.528250000000     0.255040000000     0.332020000000     0.479965   
C295     C      0.013510000000     0.328000000000     0.284700000000     0.472117   
C296     C      0.002550000000     0.206670000000     0.261760000000     0.471781   
C297     C      0.834990000000     0.004870000000     0.305000000000     0.474989   
C298     C      0.716820000000     0.023570000000     0.282160000000     0.47591    
C299     C      0.788650000000     0.512320000000     0.230600000000     0.473669   
C300     C      0.763760000000     0.516600000000     0.354860000000     0.473851   
C301     C      0.773970000000     0.019910000000     0.096630000000     0.478698   
C302     C      0.731420000000     0.026110000000     0.478390000000     0.481388   
C303     C      0.753980000000     0.085320000000     0.540540000000     0.477192   
C304     C      0.752230000000     0.461850000000     0.534200000000     0.475587   
C305     C      0.497380000000     0.268210000000     0.085860000000     0.472447   
C306     C      0.504330000000     0.263140000000     0.459140000000     0.471032   
C307     C      0.559960000000     0.256640000000     0.526740000000     0.474122   
C308     C      0.939850000000     0.274450000000     0.520280000000     0.475303   
C309     C      0.690830000000     0.265010000000     0.024820000000     0.476804   
C310     C      0.810060000000     0.289670000000     0.028670000000     0.472592   
C311     C      0.762110000000     0.217680000000     0.538520000000     0.475042   
C312     C      0.737970000000     0.336570000000     0.514960000000     0.478741   
C313     C      0.859900000000     0.311550000000     0.502850000000    -0.00763913 
C314     C      0.860860000000     0.286300000000     0.060000000000    -0.0207215  
C315     C      0.890600000000     0.292820000000     0.493390000000    -0.00882041 
C316     C      0.888260000000     0.263610000000     0.049330000000     0.0374115  
C317     C      0.608970000000     0.272340000000     0.056370000000    -0.00523994 
C318     C      0.609950000000     0.225120000000     0.516670000000    -0.0197107  
C319     C      0.638810000000     0.286550000000     0.040430000000    -0.00877309 
C320     C      0.641640000000     0.237910000000     0.500980000000     0.0363977  
C321     C      0.772910000000     0.410460000000     0.509350000000    -0.0097313  
C322     C      0.728790000000     0.409560000000     0.052820000000    -0.0212317  
C323     C      0.752730000000     0.387430000000     0.487150000000    -0.00926397 
C324     C      0.708960000000     0.388000000000     0.029680000000     0.0413667  
C325     C      0.787330000000     0.165530000000     0.521780000000    -0.00630553 
C326     C      0.756920000000     0.169400000000     0.075570000000    -0.0206396  
C327     C      0.767930000000     0.135710000000     0.511630000000    -0.0088186  
C328     C      0.737360000000     0.138580000000     0.066540000000     0.0365054  
C329     C      0.747080000000     0.989150000000     0.407730000000    -0.00895063 
C330     C      0.757160000000     0.050110000000     0.405950000000    -0.0212055  
C331     C      0.716730000000     0.495560000000     0.428840000000    -0.0079034  
C332     C      0.725690000000     0.555280000000     0.424990000000     0.039475   
C333     C      0.811990000000     0.538070000000     0.179490000000    -0.00712165 
C334     C      0.793280000000     0.480390000000     0.178200000000    -0.0201118  
C335     C      0.794170000000     0.045210000000     0.146620000000    -0.0109008  
C336     C      0.772460000000     0.987160000000     0.147490000000     0.0355426  
C337     C      0.998950000000     0.232580000000     0.405660000000    -0.00882537 
C338     C      0.022830000000     0.289250000000     0.406410000000    -0.0207117  
C339     C      0.526160000000     0.221580000000     0.382290000000    -0.00468189 
C340     C      0.550700000000     0.276990000000     0.384430000000     0.0342119  
C341     C      0.482930000000     0.243720000000     0.140760000000    -0.0079402  
C342     C      0.512010000000     0.297750000000     0.137620000000    -0.0204215  
C343     C      0.959690000000     0.258500000000     0.166730000000    -0.00951543 
C344     C      0.988440000000     0.311930000000     0.163080000000     0.0402675  
C345     C      0.634200000000     0.520700000000     0.248250000000    -0.00828748 
C346     C      0.633110000000     0.053930000000     0.300750000000    -0.019922   
C347     C      0.666320000000     0.505860000000     0.258530000000    -0.00717288 
C348     C      0.667220000000     0.042180000000     0.309610000000     0.0323216  
C349     C      0.885820000000     0.023380000000     0.330650000000    -0.00653746 
C350     C      0.883600000000     0.470630000000     0.299080000000    -0.0209392  
C351     C      0.914670000000     0.034320000000     0.310120000000    -0.00752018 
C352     C      0.912470000000     0.481180000000     0.277420000000     0.0376883  
C353     C      0.538960000000     0.379810000000     0.268010000000    -0.00837524 
C354     C      0.995060000000     0.379340000000     0.311750000000    -0.0210408  
C355     C      0.557860000000     0.404010000000     0.289140000000    -0.00415211 
C356     C      0.014140000000     0.405080000000     0.332060000000     0.0345292  
C357     C      0.974040000000     0.154260000000     0.270200000000    -0.00967914 
C358     C      0.520640000000     0.157200000000     0.230940000000    -0.0199484  
C359     C      0.989690000000     0.125780000000     0.288680000000    -0.0055461  
C360     C      0.535470000000     0.126540000000     0.247000000000     0.0348148  
C361     C      0.531720000000     0.455930000000     0.801870000000     0.478201   
C362     C      0.516380000000     0.075410000000     0.773440000000     0.475622   
C363     C      0.584550000000     0.024230000000     0.782030000000     0.471638   
C364     C      0.964300000000     0.008370000000     0.792690000000     0.479069   
C365     C      0.487220000000     0.279600000000     0.715660000000     0.479969   
C366     C      0.528250000000     0.255040000000     0.832020000000     0.480015   
C367     C      0.013510000000     0.328000000000     0.784700000000     0.472102   
C368     C      0.002550000000     0.206670000000     0.761770000000     0.471764   
C369     C      0.834990000000     0.004870000000     0.805000000000     0.47499    
C370     C      0.716820000000     0.023570000000     0.782160000000     0.475911   
C371     C      0.788650000000     0.512320000000     0.730600000000     0.473669   
C372     C      0.763760000000     0.516600000000     0.854860000000     0.473851   
C373     C      0.773970000000     0.019910000000     0.596630000000     0.478696   
C374     C      0.731420000000     0.026110000000     0.978380000000     0.481348   
C375     C      0.753980000000     0.085320000000     0.040540000000     0.477191   
C376     C      0.752230000000     0.461850000000     0.034190000000     0.475575   
C377     C      0.497380000000     0.268210000000     0.585860000000     0.472405   
C378     C      0.504330000000     0.263140000000     0.959140000000     0.470985   
C379     C      0.559960000000     0.256640000000     0.026740000000     0.474114   
C380     C      0.939850000000     0.274450000000     0.020270000000     0.475291   
C381     C      0.690830000000     0.265010000000     0.524820000000     0.476838   
C382     C      0.810060000000     0.289670000000     0.528670000000     0.472591   
C383     C      0.762110000000     0.217680000000     0.038520000000     0.475041   
C384     C      0.737970000000     0.336570000000     0.014960000000     0.478711   
C385     C      0.859900000000     0.311550000000     0.002850000000    -0.00764907 
C386     C      0.860860000000     0.286300000000     0.560000000000    -0.020719   
C387     C      0.890600000000     0.292820000000     0.993380000000    -0.00889657 
C388     C      0.888260000000     0.263610000000     0.549330000000     0.0374028  
C389     C      0.608970000000     0.272340000000     0.556370000000    -0.00523999 
C390     C      0.609950000000     0.225120000000     0.016670000000    -0.0197315  
C391     C      0.638810000000     0.286550000000     0.540430000000    -0.00877117 
C392     C      0.641640000000     0.237910000000     0.000980000000     0.036351   
C393     C      0.772910000000     0.410460000000     0.009350000000    -0.0098051  
C394     C      0.728790000000     0.409560000000     0.552820000000    -0.0212367  
C395     C      0.752730000000     0.387430000000     0.987150000000    -0.00920643 
C396     C      0.708960000000     0.388000000000     0.529680000000     0.0413688  
C397     C      0.787330000000     0.165530000000     0.021780000000    -0.00638037 
C398     C      0.756920000000     0.169400000000     0.575570000000    -0.0206353  
C399     C      0.767930000000     0.135710000000     0.011640000000    -0.0087281  
C400     C      0.737360000000     0.138580000000     0.566540000000     0.0365022  
C401     C      0.747080000000     0.989150000000     0.907730000000    -0.0089548  
C402     C      0.757160000000     0.050110000000     0.905950000000    -0.0212093  
C403     C      0.716730000000     0.495560000000     0.928840000000    -0.00789202 
C404     C      0.725690000000     0.555280000000     0.924990000000     0.0394846  
C405     C      0.811990000000     0.538070000000     0.679490000000    -0.00712183 
C406     C      0.793280000000     0.480390000000     0.678200000000    -0.0201122  
C407     C      0.794170000000     0.045210000000     0.646620000000    -0.0109007  
C408     C      0.772460000000     0.987160000000     0.647490000000     0.0355435  
C409     C      0.998950000000     0.232580000000     0.905660000000    -0.00881979 
C410     C      0.022830000000     0.289250000000     0.906410000000    -0.0207167  
C411     C      0.526160000000     0.221580000000     0.882290000000    -0.00467958 
C412     C      0.550700000000     0.276990000000     0.884430000000     0.0342253  
C413     C      0.482930000000     0.243720000000     0.640760000000    -0.00794547 
C414     C      0.512010000000     0.297750000000     0.637610000000    -0.0203975  
C415     C      0.959690000000     0.258500000000     0.666730000000    -0.00951672 
C416     C      0.988440000000     0.311930000000     0.663080000000     0.0402526  
C417     C      0.634200000000     0.520700000000     0.748250000000    -0.00828828 
C418     C      0.633110000000     0.053930000000     0.800750000000    -0.0199445  
C419     C      0.666320000000     0.505860000000     0.758530000000    -0.00714704 
C420     C      0.667220000000     0.042180000000     0.809610000000     0.0323274  
C421     C      0.885820000000     0.023380000000     0.830650000000    -0.00653155 
C422     C      0.883600000000     0.470630000000     0.799080000000    -0.0209492  
C423     C      0.914670000000     0.034320000000     0.810120000000    -0.00754644 
C424     C      0.912470000000     0.481180000000     0.777420000000     0.0377076  
C425     C      0.538960000000     0.379810000000     0.768010000000    -0.00837707 
C426     C      0.995060000000     0.379340000000     0.811750000000    -0.021011   
C427     C      0.557860000000     0.404010000000     0.789140000000    -0.00415041 
C428     C      0.014140000000     0.405080000000     0.832060000000     0.0345213  
C429     C      0.974040000000     0.154260000000     0.770200000000    -0.00971678 
C430     C      0.520640000000     0.157200000000     0.730940000000    -0.0199874  
C431     C      0.989690000000     0.125780000000     0.788680000000    -0.00553482 
C432     C      0.535470000000     0.126540000000     0.747000000000     0.0348247  
C433     C      0.531720000000     0.955930000000     0.301870000000     0.478119   
C434     C      0.516380000000     0.575410000000     0.273440000000     0.475605   
C435     C      0.584550000000     0.524230000000     0.282020000000     0.471653   
C436     C      0.964300000000     0.508370000000     0.292690000000     0.479052   
C437     C      0.487220000000     0.779600000000     0.215660000000     0.480028   
C438     C      0.528250000000     0.755040000000     0.332020000000     0.479963   
C439     C      0.013510000000     0.828000000000     0.284700000000     0.472116   
C440     C      0.002550000000     0.706660000000     0.261760000000     0.471701   
C441     C      0.834990000000     0.504870000000     0.305000000000     0.475463   
C442     C      0.716820000000     0.523570000000     0.282160000000     0.476196   
C443     C      0.788650000000     0.012320000000     0.230600000000     0.473376   
C444     C      0.763760000000     0.016600000000     0.354860000000     0.473563   
C445     C      0.773970000000     0.519910000000     0.096630000000     0.478736   
C446     C      0.731420000000     0.526110000000     0.478390000000     0.481427   
C447     C      0.753980000000     0.585320000000     0.540540000000     0.477209   
C448     C      0.752230000000     0.961850000000     0.534200000000     0.475551   
C449     C      0.497380000000     0.768210000000     0.085860000000     0.472446   
C450     C      0.504330000000     0.763140000000     0.459140000000     0.471034   
C451     C      0.559960000000     0.756640000000     0.526740000000     0.474121   
C452     C      0.939850000000     0.774440000000     0.520280000000     0.475314   
C453     C      0.690830000000     0.765000000000     0.024820000000     0.476776   
C454     C      0.810060000000     0.789670000000     0.028670000000     0.472624   
C455     C      0.762110000000     0.717680000000     0.538520000000     0.475035   
C456     C      0.737970000000     0.836570000000     0.514960000000     0.478743   
C457     C      0.859900000000     0.811550000000     0.502850000000    -0.00765479 
C458     C      0.860860000000     0.786300000000     0.060000000000    -0.0207231  
C459     C      0.890600000000     0.792820000000     0.493390000000    -0.00881467 
C460     C      0.888260000000     0.763610000000     0.049330000000     0.0374094  
C461     C      0.608970000000     0.772340000000     0.056370000000    -0.00524679 
C462     C      0.609950000000     0.725120000000     0.516670000000    -0.0197097  
C463     C      0.638810000000     0.786550000000     0.040430000000    -0.00875837 
C464     C      0.641640000000     0.737910000000     0.500980000000     0.0363888  
C465     C      0.772910000000     0.910460000000     0.509350000000    -0.00973418 
C466     C      0.728790000000     0.909560000000     0.052820000000    -0.0212333  
C467     C      0.752730000000     0.887430000000     0.487150000000    -0.00926273 
C468     C      0.708960000000     0.888000000000     0.029680000000     0.0413655  
C469     C      0.787330000000     0.665530000000     0.521780000000    -0.00630849 
C470     C      0.756920000000     0.669400000000     0.075570000000    -0.0206461  
C471     C      0.767930000000     0.635710000000     0.511630000000    -0.00881581 
C472     C      0.737360000000     0.638570000000     0.066540000000     0.0365389  
C473     C      0.747080000000     0.489150000000     0.407730000000    -0.00906314 
C474     C      0.757160000000     0.550100000000     0.405950000000    -0.0210689  
C475     C      0.716730000000     0.995560000000     0.428840000000    -0.00776789 
C476     C      0.725690000000     0.055280000000     0.424990000000     0.0395132  
C477     C      0.811990000000     0.038070000000     0.179490000000    -0.00714293 
C478     C      0.793280000000     0.980390000000     0.178200000000    -0.0199549  
C479     C      0.794170000000     0.545210000000     0.146620000000    -0.010887   
C480     C      0.772460000000     0.487160000000     0.147490000000     0.0354426  
C481     C      0.998950000000     0.732580000000     0.405660000000    -0.00877525 
C482     C      0.022830000000     0.789240000000     0.406410000000    -0.0205943  
C483     C      0.526160000000     0.721570000000     0.382290000000    -0.00480135 
C484     C      0.550700000000     0.776990000000     0.384430000000     0.0341687  
C485     C      0.482930000000     0.743720000000     0.140760000000    -0.00794142 
C486     C      0.512010000000     0.797750000000     0.137620000000    -0.0204205  
C487     C      0.959690000000     0.758500000000     0.166730000000    -0.00951087 
C488     C      0.988440000000     0.811930000000     0.163080000000     0.0402599  
C489     C      0.634200000000     0.020700000000     0.248250000000    -0.00819654 
C490     C      0.633110000000     0.553930000000     0.300750000000    -0.0199735  
C491     C      0.666320000000     0.005860000000     0.258530000000    -0.00762865 
C492     C      0.667220000000     0.542180000000     0.309610000000     0.0323766  
C493     C      0.885820000000     0.523370000000     0.330650000000    -0.0062715  
C494     C      0.883600000000     0.970630000000     0.299080000000    -0.02098    
C495     C      0.914670000000     0.534320000000     0.310120000000    -0.00758712 
C496     C      0.912470000000     0.981180000000     0.277420000000     0.0378391  
C497     C      0.538960000000     0.879810000000     0.268010000000    -0.00837952 
C498     C      0.995060000000     0.879340000000     0.311750000000    -0.0210601  
C499     C      0.557860000000     0.904010000000     0.289140000000    -0.00414357 
C500     C      0.014140000000     0.905080000000     0.332060000000     0.0345291  
C501     C      0.974040000000     0.654260000000     0.270200000000    -0.00965495 
C502     C      0.520640000000     0.657200000000     0.230940000000    -0.0199356  
C503     C      0.989690000000     0.625790000000     0.288680000000    -0.00557277 
C504     C      0.535470000000     0.626540000000     0.247000000000     0.0348133  
C505     C      0.531720000000     0.955930000000     0.801870000000     0.478167   
C506     C      0.516380000000     0.575410000000     0.773440000000     0.475637   
C507     C      0.584550000000     0.524230000000     0.782030000000     0.471692   
C508     C      0.964300000000     0.508370000000     0.792690000000     0.479108   
C509     C      0.487220000000     0.779600000000     0.715660000000     0.479966   
C510     C      0.528250000000     0.755040000000     0.832020000000     0.480012   
C511     C      0.013510000000     0.828000000000     0.784700000000     0.472102   
C512     C      0.002550000000     0.706660000000     0.761770000000     0.471684   
C513     C      0.834990000000     0.504870000000     0.805000000000     0.475463   
C514     C      0.716820000000     0.523570000000     0.782160000000     0.476198   
C515     C      0.788650000000     0.012320000000     0.730600000000     0.473376   
C516     C      0.763760000000     0.016600000000     0.854860000000     0.473563   
C517     C      0.773970000000     0.519910000000     0.596630000000     0.478734   
C518     C      0.731420000000     0.526110000000     0.978380000000     0.481386   
C519     C      0.753980000000     0.585320000000     0.040540000000     0.477208   
C520     C      0.752230000000     0.961850000000     0.034190000000     0.475539   
C521     C      0.497380000000     0.768210000000     0.585860000000     0.472404   
C522     C      0.504330000000     0.763140000000     0.959140000000     0.470987   
C523     C      0.559960000000     0.756640000000     0.026740000000     0.474113   
C524     C      0.939850000000     0.774440000000     0.020270000000     0.475302   
C525     C      0.690830000000     0.765000000000     0.524820000000     0.476809   
C526     C      0.810060000000     0.789670000000     0.528670000000     0.472623   
C527     C      0.762110000000     0.717680000000     0.038520000000     0.475034   
C528     C      0.737970000000     0.836570000000     0.014960000000     0.478714   
C529     C      0.859900000000     0.811550000000     0.002850000000    -0.00766472 
C530     C      0.860860000000     0.786300000000     0.560000000000    -0.0207205  
C531     C      0.890600000000     0.792820000000     0.993380000000    -0.00889084 
C532     C      0.888260000000     0.763610000000     0.549330000000     0.0374007  
C533     C      0.608970000000     0.772340000000     0.556370000000    -0.00524684 
C534     C      0.609950000000     0.725120000000     0.016670000000    -0.0197305  
C535     C      0.638810000000     0.786550000000     0.540430000000    -0.00875646 
C536     C      0.641640000000     0.737910000000     0.000980000000     0.0363421  
C537     C      0.772910000000     0.910460000000     0.009350000000    -0.00980796 
C538     C      0.728790000000     0.909560000000     0.552820000000    -0.0212383  
C539     C      0.752730000000     0.887430000000     0.987150000000    -0.00920522 
C540     C      0.708960000000     0.888000000000     0.529680000000     0.0413676  
C541     C      0.787330000000     0.665530000000     0.021780000000    -0.00638333 
C542     C      0.756920000000     0.669400000000     0.575570000000    -0.0206418  
C543     C      0.767930000000     0.635710000000     0.011640000000    -0.00872531 
C544     C      0.737360000000     0.638570000000     0.566540000000     0.0365358  
C545     C      0.747080000000     0.489150000000     0.907730000000    -0.0090673  
C546     C      0.757160000000     0.550100000000     0.905950000000    -0.0210727  
C547     C      0.716730000000     0.995560000000     0.928840000000    -0.00775654 
C548     C      0.725690000000     0.055280000000     0.924990000000     0.0395228  
C549     C      0.811990000000     0.038070000000     0.679490000000    -0.0071431  
C550     C      0.793280000000     0.980390000000     0.678200000000    -0.0199553  
C551     C      0.794170000000     0.545210000000     0.646620000000    -0.0108869  
C552     C      0.772460000000     0.487160000000     0.647490000000     0.0354435  
C553     C      0.998950000000     0.732580000000     0.905660000000    -0.00876967 
C554     C      0.022830000000     0.789240000000     0.906410000000    -0.0205992  
C555     C      0.526160000000     0.721570000000     0.882290000000    -0.00479904 
C556     C      0.550700000000     0.776990000000     0.884430000000     0.0341821  
C557     C      0.482930000000     0.743720000000     0.640760000000    -0.0079467  
C558     C      0.512010000000     0.797750000000     0.637610000000    -0.0203965  
C559     C      0.959690000000     0.758500000000     0.666730000000    -0.00951217 
C560     C      0.988440000000     0.811930000000     0.663080000000     0.0402451  
C561     C      0.634200000000     0.020700000000     0.748250000000    -0.00819743 
C562     C      0.633110000000     0.553930000000     0.800750000000    -0.019996   
C563     C      0.666320000000     0.005860000000     0.758530000000    -0.00760253 
C564     C      0.667220000000     0.542180000000     0.809610000000     0.0323825  
C565     C      0.885820000000     0.523370000000     0.830650000000    -0.00626561 
C566     C      0.883600000000     0.970630000000     0.799080000000    -0.02099    
C567     C      0.914670000000     0.534320000000     0.810120000000    -0.00761336 
C568     C      0.912470000000     0.981180000000     0.777420000000     0.0378584  
C569     C      0.538960000000     0.879810000000     0.768010000000    -0.00838135 
C570     C      0.995060000000     0.879340000000     0.811750000000    -0.0210303  
C571     C      0.557860000000     0.904010000000     0.789140000000    -0.00414187 
C572     C      0.014140000000     0.905080000000     0.832060000000     0.0345212  
C573     C      0.974040000000     0.654260000000     0.770200000000    -0.0096926  
C574     C      0.520640000000     0.657200000000     0.730940000000    -0.0199747  
C575     C      0.989690000000     0.625790000000     0.788680000000    -0.00556147 
C576     C      0.535470000000     0.626540000000     0.747000000000     0.0348232  
H1       H      0.383590000000     0.272030000000     0.477000000000     0.0341093  
H2       H      0.344660000000     0.314980000000     0.480220000000     0.0363281  
H3       H      0.377540000000     0.240790000000     0.539110000000     0.0301193  
H4       H      0.345760000000     0.273760000000     0.079120000000     0.0430907  
H5       H      0.406580000000     0.308960000000     0.478320000000     0.0336172  
H6       H      0.367210000000     0.336250000000     0.011590000000     0.034159   
H7       H      0.371160000000     0.308790000000     0.071430000000     0.0436103  
H8       H      0.419220000000     0.220690000000     0.084870000000     0.0329205  
H9       H      0.131270000000     0.304740000000     0.021280000000     0.0370138  
H10      H      0.093770000000     0.292400000000     0.066550000000     0.0352486  
H11      H      0.135420000000     0.251100000000     0.477510000000     0.0292388  
H12      H      0.095420000000     0.212540000000     0.497110000000     0.0397374  
H13      H      0.152350000000     0.299880000000     0.060140000000     0.0401149  
H14      H      0.116520000000     0.256730000000     0.077790000000     0.0348807  
H15      H      0.115740000000     0.207080000000     0.536640000000     0.042017   
H16      H      0.178410000000     0.207430000000     0.458500000000     0.0334699  
H17      H      0.238370000000     0.402560000000     0.469490000000     0.0338909  
H18      H      0.287160000000     0.427010000000     0.492990000000     0.037284   
H19      H      0.194960000000     0.404660000000     0.513160000000     0.0271925  
H20      H      0.212660000000     0.425230000000     0.068170000000     0.0435427  
H21      H      0.269070000000     0.371490000000     0.472300000000     0.0340088  
H22      H      0.289950000000     0.395390000000     0.024260000000     0.0379109  
H23      H      0.242560000000     0.393660000000     0.070290000000     0.0464672  
H24      H      0.151120000000     0.365250000000     0.036690000000     0.0268524  
H25      H      0.247550000000     0.144320000000     0.495930000000     0.038295   
H26      H      0.294950000000     0.179170000000     0.499030000000     0.0376814  
H27      H      0.214090000000     0.146660000000     0.055610000000     0.0300957  
H28      H      0.241770000000     0.185870000000     0.091150000000     0.0438231  
H29      H      0.283130000000     0.119600000000     0.495730000000     0.0389406  
H30      H      0.309420000000     0.156990000000     0.534820000000     0.0351919  
H31      H      0.278210000000     0.162080000000     0.090690000000     0.0407084  
H32      H      0.197510000000     0.107050000000     0.105030000000     0.0331488  
H33      H      0.195700000000     0.496730000000     0.411660000000     0.0350205  
H34      H      0.242830000000     0.467440000000     0.391620000000     0.0387304  
H35      H      0.206090000000     0.557000000000     0.406140000000     0.026914   
H36      H      0.261060000000     0.071220000000     0.388920000000     0.0459466  
H37      H      0.212940000000     0.474920000000     0.446600000000     0.0281432  
H38      H      0.267160000000     0.983130000000     0.425040000000     0.039587   
H39      H      0.277540000000     0.049680000000     0.423970000000     0.0486637  
H40      H      0.199270000000     0.095620000000     0.467100000000     0.0376749  
H41      H      0.271950000000     0.059150000000     0.152720000000     0.0378899  
H42      H      0.313020000000     0.060710000000     0.194810000000     0.0392748  
H43      H      0.247640000000     0.992900000000     0.156090000000     0.0332572  
H44      H      0.282260000000     0.460300000000     0.193020000000     0.0439881  
H45      H      0.309290000000     0.061290000000     0.130560000000     0.0329376  
H46      H      0.337140000000     0.531190000000     0.173150000000     0.0348417  
H47      H      0.317480000000     0.472110000000     0.169800000000     0.0415021  
H48      H      0.241330000000     0.936070000000     0.126670000000     0.0276485  
H49      H      0.045600000000     0.210810000000     0.397920000000     0.0338745  
H50      H      0.491750000000     0.211710000000     0.421800000000     0.0383962  
H51      H      0.069850000000     0.267960000000     0.401560000000     0.0285707  
H52      H      0.031860000000     0.308870000000     0.423210000000     0.044943   
H53      H      0.517120000000     0.202250000000     0.365060000000     0.0282546  
H54      H      0.477780000000     0.239130000000     0.390060000000     0.0412448  
H55      H      0.503980000000     0.300010000000     0.389990000000     0.0444328  
H56      H      0.096060000000     0.300840000000     0.346920000000     0.0357448  
H57      H      0.438290000000     0.268240000000     0.153410000000     0.0379842  
H58      H      0.469870000000     0.225340000000     0.125440000000     0.0369115  
H59      H      0.468160000000     0.322660000000     0.148620000000     0.0292237  
H60      H      0.020130000000     0.317300000000     0.120210000000     0.0434751  
H61      H      0.451560000000     0.239040000000     0.184310000000     0.0318217  
H62      H      0.002560000000     0.230940000000     0.154400000000     0.0380777  
H63      H      0.033610000000     0.288720000000     0.151200000000     0.0456484  
H64      H      0.484850000000     0.357050000000     0.208780000000     0.0336356  
H65      H      0.161710000000     0.482700000000     0.272340000000     0.0402161  
H66      H      0.120710000000     0.502380000000     0.233220000000     0.0376205  
H67      H      0.164890000000     0.022380000000     0.328550000000     0.0279055  
H68      H      0.119410000000     0.058290000000     0.324260000000     0.0423433  
H69      H      0.180320000000     0.499760000000     0.235580000000     0.0312121  
H70      H      0.138810000000     0.542410000000     0.232180000000     0.0361121  
H71      H      0.134890000000     0.077780000000     0.287480000000     0.0385852  
H72      H      0.173740000000     0.082860000000     0.359180000000     0.0250638  
H73      H      0.405820000000     0.050160000000     0.289440000000     0.0355016  
H74      H      0.371540000000     0.045030000000     0.338510000000     0.0361616  
H75      H      0.402940000000     0.492090000000     0.253910000000     0.0294607  
H76      H      0.367540000000     0.454560000000     0.284050000000     0.0426623  
H77      H      0.430610000000     0.049640000000     0.326100000000     0.0352728  
H78      H      0.394930000000     0.011260000000     0.353710000000     0.0348544  
H79      H      0.392540000000     0.456440000000     0.320970000000     0.0422644  
H80      H      0.444770000000     0.447130000000     0.233810000000     0.0341082  
H81      H      0.073920000000     0.389950000000     0.306130000000     0.0352853  
H82      H      0.056070000000     0.364120000000     0.253920000000     0.040113   
H83      H      0.029220000000     0.391450000000     0.350350000000     0.0283075  
H84      H      0.482290000000     0.362720000000     0.329360000000     0.0422302  
H85      H      0.073270000000     0.419410000000     0.272670000000     0.0330519  
H86      H      0.524790000000     0.393830000000     0.249260000000     0.0400637  
H87      H      0.476690000000     0.391990000000     0.296240000000     0.0441707  
H88      H      0.501040000000     0.440680000000     0.384190000000     0.03268    
H89      H      0.503830000000     0.135540000000     0.310130000000     0.0385895  
H90      H      0.459000000000     0.168300000000     0.288160000000     0.037839   
H91      H      0.054140000000     0.135110000000     0.264920000000     0.0271581  
H92      H      0.040070000000     0.173330000000     0.221300000000     0.0434856  
H93      H      0.470480000000     0.109670000000     0.298950000000     0.03009    
H94      H      0.458100000000     0.144290000000     0.250290000000     0.0359549  
H95      H      0.005860000000     0.149500000000     0.209070000000     0.0397101  
H96      H      0.082100000000     0.088050000000     0.229170000000     0.0332278  
H97      H      0.383590000000     0.272030000000     0.977000000000     0.0341394  
H98      H      0.344660000000     0.314980000000     0.980220000000     0.036348   
H99      H      0.377540000000     0.240790000000     0.039110000000     0.030112   
H100     H      0.345760000000     0.273760000000     0.579120000000     0.0430908  
H101     H      0.406580000000     0.308960000000     0.978320000000     0.0336458  
H102     H      0.367210000000     0.336250000000     0.511590000000     0.0341634  
H103     H      0.371160000000     0.308790000000     0.571430000000     0.0436083  
H104     H      0.419220000000     0.220690000000     0.584870000000     0.0329251  
H105     H      0.131270000000     0.304740000000     0.521280000000     0.0370188  
H106     H      0.093770000000     0.292400000000     0.566550000000     0.0352508  
H107     H      0.135420000000     0.251100000000     0.977510000000     0.0292649  
H108     H      0.095420000000     0.212540000000     0.997110000000     0.0397605  
H109     H      0.152350000000     0.299880000000     0.560140000000     0.0401151  
H110     H      0.116520000000     0.256730000000     0.577790000000     0.0348824  
H111     H      0.115740000000     0.207080000000     0.036640000000     0.0420147  
H112     H      0.178410000000     0.207430000000     0.958500000000     0.0334649  
H113     H      0.238370000000     0.402560000000     0.969490000000     0.0338817  
H114     H      0.287160000000     0.427010000000     0.992990000000     0.0373132  
H115     H      0.194960000000     0.404660000000     0.013160000000     0.0271822  
H116     H      0.212660000000     0.425230000000     0.568170000000     0.0435414  
H117     H      0.269070000000     0.371490000000     0.972300000000     0.0340023  
H118     H      0.289950000000     0.395390000000     0.524260000000     0.0378985  
H119     H      0.242560000000     0.393660000000     0.570290000000     0.0464651  
H120     H      0.151120000000     0.365250000000     0.536690000000     0.0268567  
H121     H      0.247550000000     0.144320000000     0.995920000000     0.038271   
H122     H      0.294950000000     0.179170000000     0.999030000000     0.0377163  
H123     H      0.214090000000     0.146660000000     0.555610000000     0.0301018  
H124     H      0.241770000000     0.185870000000     0.591150000000     0.0438231  
H125     H      0.283130000000     0.119600000000     0.995730000000     0.0389263  
H126     H      0.309420000000     0.156990000000     0.034820000000     0.0352011  
H127     H      0.278210000000     0.162080000000     0.590690000000     0.0407081  
H128     H      0.197510000000     0.107050000000     0.605030000000     0.0331506  
H129     H      0.195700000000     0.496730000000     0.911660000000     0.0350192  
H130     H      0.242830000000     0.467440000000     0.891620000000     0.0387313  
H131     H      0.206090000000     0.557000000000     0.906140000000     0.0269129  
H132     H      0.261060000000     0.071220000000     0.888920000000     0.0459473  
H133     H      0.212940000000     0.474920000000     0.946600000000     0.0281394  
H134     H      0.267160000000     0.983130000000     0.925040000000     0.0395854  
H135     H      0.277540000000     0.049680000000     0.923970000000     0.0486625  
H136     H      0.199270000000     0.095620000000     0.967100000000     0.0376796  
H137     H      0.271950000000     0.059150000000     0.652720000000     0.03789    
H138     H      0.313020000000     0.060710000000     0.694810000000     0.0392752  
H139     H      0.247640000000     0.992900000000     0.656090000000     0.0332569  
H140     H      0.282260000000     0.460300000000     0.693020000000     0.0439883  
H141     H      0.309290000000     0.061290000000     0.630560000000     0.0329387  
H142     H      0.337140000000     0.531190000000     0.673150000000     0.0348426  
H143     H      0.317480000000     0.472110000000     0.669800000000     0.0415026  
H144     H      0.241330000000     0.936070000000     0.626670000000     0.0276478  
H145     H      0.045600000000     0.210810000000     0.897910000000     0.0338779  
H146     H      0.491750000000     0.211710000000     0.921810000000     0.0383986  
H147     H      0.069850000000     0.267960000000     0.901560000000     0.0285703  
H148     H      0.031860000000     0.308870000000     0.923210000000     0.0449468  
H149     H      0.517120000000     0.202250000000     0.865050000000     0.028243   
H150     H      0.477780000000     0.239130000000     0.890060000000     0.0412423  
H151     H      0.503980000000     0.300010000000     0.889990000000     0.0444327  
H152     H      0.096060000000     0.300840000000     0.846920000000     0.0357468  
H153     H      0.438290000000     0.268240000000     0.653410000000     0.0379847  
H154     H      0.469870000000     0.225340000000     0.625440000000     0.0369126  
H155     H      0.468160000000     0.322660000000     0.648620000000     0.0292265  
H156     H      0.020130000000     0.317300000000     0.620210000000     0.043473   
H157     H      0.451560000000     0.239040000000     0.684310000000     0.0318286  
H158     H      0.002560000000     0.230940000000     0.654400000000     0.0380844  
H159     H      0.033610000000     0.288720000000     0.651200000000     0.0456422  
H160     H      0.484850000000     0.357050000000     0.708770000000     0.0336442  
H161     H      0.161710000000     0.482700000000     0.772340000000     0.0402093  
H162     H      0.120710000000     0.502380000000     0.733220000000     0.0376213  
H163     H      0.164890000000     0.022380000000     0.828550000000     0.0279014  
H164     H      0.119410000000     0.058290000000     0.824260000000     0.0423395  
H165     H      0.180320000000     0.499760000000     0.735570000000     0.0311971  
H166     H      0.138810000000     0.542410000000     0.732180000000     0.0361148  
H167     H      0.134890000000     0.077780000000     0.787490000000     0.0385904  
H168     H      0.173740000000     0.082860000000     0.859180000000     0.0250628  
H169     H      0.405820000000     0.050160000000     0.789440000000     0.0355115  
H170     H      0.371540000000     0.045030000000     0.838510000000     0.03616    
H171     H      0.402940000000     0.492090000000     0.753920000000     0.0294636  
H172     H      0.367540000000     0.454560000000     0.784050000000     0.0426643  
H173     H      0.430610000000     0.049640000000     0.826100000000     0.0352722  
H174     H      0.394930000000     0.011260000000     0.853710000000     0.034849   
H175     H      0.392540000000     0.456440000000     0.820970000000     0.0422642  
H176     H      0.444770000000     0.447130000000     0.733810000000     0.0341092  
H177     H      0.073920000000     0.389950000000     0.806130000000     0.0352842  
H178     H      0.056070000000     0.364120000000     0.753920000000     0.0401175  
H179     H      0.029220000000     0.391450000000     0.850350000000     0.0283083  
H180     H      0.482290000000     0.362720000000     0.829370000000     0.0422126  
H181     H      0.073270000000     0.419410000000     0.772670000000     0.0330496  
H182     H      0.524790000000     0.393830000000     0.749260000000     0.0400645  
H183     H      0.476690000000     0.391990000000     0.796240000000     0.0441648  
H184     H      0.501040000000     0.440680000000     0.884190000000     0.0326745  
H185     H      0.503830000000     0.135540000000     0.810130000000     0.038578   
H186     H      0.459000000000     0.168300000000     0.788160000000     0.037844   
H187     H      0.054140000000     0.135110000000     0.764920000000     0.0271523  
H188     H      0.040070000000     0.173330000000     0.721300000000     0.0435026  
H189     H      0.470480000000     0.109670000000     0.798950000000     0.0300831  
H190     H      0.458100000000     0.144290000000     0.750300000000     0.0359681  
H191     H      0.005860000000     0.149500000000     0.709080000000     0.0397381  
H192     H      0.082100000000     0.088050000000     0.729170000000     0.0332301  
H193     H      0.383590000000     0.772030000000     0.477000000000     0.0341015  
H194     H      0.344660000000     0.814970000000     0.480220000000     0.0363493  
H195     H      0.377540000000     0.740790000000     0.539110000000     0.0301143  
H196     H      0.345760000000     0.773760000000     0.079120000000     0.0430892  
H197     H      0.406580000000     0.808960000000     0.478320000000     0.0336219  
H198     H      0.367210000000     0.836250000000     0.011590000000     0.0341754  
H199     H      0.371160000000     0.808790000000     0.071430000000     0.0436169  
H200     H      0.419220000000     0.720700000000     0.084870000000     0.0329363  
H201     H      0.131270000000     0.804740000000     0.021280000000     0.0370182  
H202     H      0.093770000000     0.792400000000     0.066550000000     0.0352528  
H203     H      0.135420000000     0.751100000000     0.477510000000     0.0292424  
H204     H      0.095420000000     0.712540000000     0.497110000000     0.0397387  
H205     H      0.152350000000     0.799880000000     0.060140000000     0.0401171  
H206     H      0.116520000000     0.756730000000     0.077790000000     0.0348804  
H207     H      0.115740000000     0.707080000000     0.536640000000     0.0420166  
H208     H      0.178410000000     0.707430000000     0.458500000000     0.0334696  
H209     H      0.238370000000     0.902560000000     0.469490000000     0.0339003  
H210     H      0.287160000000     0.927010000000     0.492990000000     0.0373052  
H211     H      0.194960000000     0.904660000000     0.513160000000     0.0272072  
H212     H      0.212660000000     0.925230000000     0.068170000000     0.0435598  
H213     H      0.269070000000     0.871490000000     0.472300000000     0.0340172  
H214     H      0.289950000000     0.895390000000     0.024260000000     0.037922   
H215     H      0.242560000000     0.893660000000     0.070290000000     0.0464711  
H216     H      0.151120000000     0.865250000000     0.036690000000     0.0268621  
H217     H      0.247550000000     0.644320000000     0.495930000000     0.0382921  
H218     H      0.294950000000     0.679170000000     0.499030000000     0.0376777  
H219     H      0.214090000000     0.646660000000     0.055610000000     0.0300865  
H220     H      0.241770000000     0.685870000000     0.091150000000     0.0438215  
H221     H      0.283130000000     0.619600000000     0.495730000000     0.0389412  
H222     H      0.309420000000     0.656990000000     0.534820000000     0.035193   
H223     H      0.278210000000     0.662080000000     0.090690000000     0.0407081  
H224     H      0.197510000000     0.607050000000     0.105030000000     0.0331587  
H225     H      0.195700000000     0.996730000000     0.411660000000     0.0350668  
H226     H      0.242830000000     0.967440000000     0.391620000000     0.0387358  
H227     H      0.206090000000     0.057000000000     0.406140000000     0.0268813  
H228     H      0.261060000000     0.571220000000     0.388920000000     0.0459007  
H229     H      0.212940000000     0.974920000000     0.446600000000     0.028155   
H230     H      0.267160000000     0.483130000000     0.425040000000     0.0395474  
H231     H      0.277540000000     0.549680000000     0.423970000000     0.048647   
H232     H      0.199270000000     0.595620000000     0.467100000000     0.0376792  
H233     H      0.271950000000     0.559150000000     0.152720000000     0.0379006  
H234     H      0.313020000000     0.560710000000     0.194810000000     0.0392724  
H235     H      0.247640000000     0.492900000000     0.156090000000     0.0332057  
H236     H      0.282260000000     0.960290000000     0.193020000000     0.0439624  
H237     H      0.309290000000     0.561290000000     0.130560000000     0.0329411  
H238     H      0.337140000000     0.031190000000     0.173150000000     0.034803   
H239     H      0.317480000000     0.972110000000     0.169800000000     0.0415213  
H240     H      0.241330000000     0.436070000000     0.126670000000     0.0276411  
H241     H      0.045600000000     0.710810000000     0.397920000000     0.03391    
H242     H      0.491750000000     0.711710000000     0.421800000000     0.0383868  
H243     H      0.069850000000     0.767960000000     0.401560000000     0.0285799  
H244     H      0.031860000000     0.808870000000     0.423210000000     0.0449082  
H245     H      0.517120000000     0.702250000000     0.365060000000     0.0282895  
H246     H      0.477780000000     0.739130000000     0.390060000000     0.0412331  
H247     H      0.503980000000     0.800010000000     0.389990000000     0.0443975  
H248     H      0.096060000000     0.800840000000     0.346920000000     0.0357435  
H249     H      0.438290000000     0.768240000000     0.153410000000     0.0379838  
H250     H      0.469870000000     0.725340000000     0.125440000000     0.0369131  
H251     H      0.468160000000     0.822660000000     0.148620000000     0.0292309  
H252     H      0.020130000000     0.817300000000     0.120210000000     0.0434807  
H253     H      0.451560000000     0.739040000000     0.184310000000     0.0318248  
H254     H      0.002560000000     0.730940000000     0.154400000000     0.038085   
H255     H      0.033610000000     0.788720000000     0.151200000000     0.0456483  
H256     H      0.484850000000     0.857050000000     0.208780000000     0.0336377  
H257     H      0.161710000000     0.982700000000     0.272340000000     0.0404484  
H258     H      0.120710000000     0.002380000000     0.233220000000     0.0375341  
H259     H      0.164890000000     0.522380000000     0.328550000000     0.0279371  
H260     H      0.119410000000     0.558290000000     0.324260000000     0.0423656  
H261     H      0.180320000000     0.999760000000     0.235580000000     0.0314599  
H262     H      0.138810000000     0.042410000000     0.232180000000     0.0360776  
H263     H      0.134890000000     0.577780000000     0.287480000000     0.0385911  
H264     H      0.173740000000     0.582860000000     0.359180000000     0.0250707  
H265     H      0.405820000000     0.550160000000     0.289440000000     0.0355356  
H266     H      0.371540000000     0.545030000000     0.338510000000     0.0361067  
H267     H      0.402940000000     0.992090000000     0.253910000000     0.0295032  
H268     H      0.367540000000     0.954560000000     0.284050000000     0.0426932  
H269     H      0.430610000000     0.549640000000     0.326100000000     0.0352932  
H270     H      0.394930000000     0.511250000000     0.353710000000     0.0348523  
H271     H      0.392540000000     0.956440000000     0.320970000000     0.0423128  
H272     H      0.444770000000     0.947130000000     0.233810000000     0.0341428  
H273     H      0.073920000000     0.889950000000     0.306130000000     0.0352926  
H274     H      0.056070000000     0.864120000000     0.253920000000     0.0401169  
H275     H      0.029220000000     0.891450000000     0.350350000000     0.0283136  
H276     H      0.482290000000     0.862720000000     0.329360000000     0.0422349  
H277     H      0.073270000000     0.919420000000     0.272670000000     0.0330771  
H278     H      0.524790000000     0.893830000000     0.249260000000     0.0400749  
H279     H      0.476690000000     0.891980000000     0.296240000000     0.0441851  
H280     H      0.501040000000     0.940680000000     0.384190000000     0.0327078  
H281     H      0.503830000000     0.635540000000     0.310130000000     0.0385962  
H282     H      0.459000000000     0.668300000000     0.288160000000     0.0378274  
H283     H      0.054140000000     0.635120000000     0.264920000000     0.0271551  
H284     H      0.040070000000     0.673330000000     0.221300000000     0.04348    
H285     H      0.470480000000     0.609670000000     0.298950000000     0.0300977  
H286     H      0.458100000000     0.644290000000     0.250290000000     0.0359524  
H287     H      0.005860000000     0.649500000000     0.209070000000     0.0397126  
H288     H      0.082100000000     0.588050000000     0.229170000000     0.0332263  
H289     H      0.383590000000     0.772030000000     0.977000000000     0.0341316  
H290     H      0.344660000000     0.814970000000     0.980220000000     0.0363691  
H291     H      0.377540000000     0.740790000000     0.039110000000     0.030107   
H292     H      0.345760000000     0.773760000000     0.579120000000     0.0430893  
H293     H      0.406580000000     0.808960000000     0.978320000000     0.0336505  
H294     H      0.367210000000     0.836250000000     0.511590000000     0.0341797  
H295     H      0.371160000000     0.808790000000     0.571430000000     0.0436149  
H296     H      0.419220000000     0.720700000000     0.584870000000     0.0329409  
H297     H      0.131270000000     0.804740000000     0.521280000000     0.0370232  
H298     H      0.093770000000     0.792400000000     0.566550000000     0.035255   
H299     H      0.135420000000     0.751100000000     0.977510000000     0.0292685  
H300     H      0.095420000000     0.712540000000     0.997110000000     0.0397618  
H301     H      0.152350000000     0.799880000000     0.560140000000     0.0401173  
H302     H      0.116520000000     0.756730000000     0.577790000000     0.0348821  
H303     H      0.115740000000     0.707080000000     0.036640000000     0.0420142  
H304     H      0.178410000000     0.707430000000     0.958500000000     0.0334646  
H305     H      0.238370000000     0.902560000000     0.969490000000     0.0338911  
H306     H      0.287160000000     0.927010000000     0.992990000000     0.0373345  
H307     H      0.194960000000     0.904660000000     0.013160000000     0.0271969  
H308     H      0.212660000000     0.925230000000     0.568170000000     0.0435585  
H309     H      0.269070000000     0.871490000000     0.972300000000     0.0340108  
H310     H      0.289950000000     0.895390000000     0.524260000000     0.0379096  
H311     H      0.242560000000     0.893660000000     0.570290000000     0.046469   
H312     H      0.151120000000     0.865250000000     0.536690000000     0.0268664  
H313     H      0.247550000000     0.644320000000     0.995920000000     0.038268   
H314     H      0.294950000000     0.679170000000     0.999030000000     0.0377126  
H315     H      0.214090000000     0.646660000000     0.555610000000     0.0300925  
H316     H      0.241770000000     0.685870000000     0.591150000000     0.0438215  
H317     H      0.283130000000     0.619600000000     0.995730000000     0.0389269  
H318     H      0.309420000000     0.656990000000     0.034820000000     0.0352021  
H319     H      0.278210000000     0.662080000000     0.590690000000     0.0407078  
H320     H      0.197510000000     0.607050000000     0.605030000000     0.0331605  
H321     H      0.195700000000     0.996730000000     0.911660000000     0.0350655  
H322     H      0.242830000000     0.967440000000     0.891620000000     0.0387367  
H323     H      0.206090000000     0.057000000000     0.906140000000     0.0268801  
H324     H      0.261060000000     0.571220000000     0.888920000000     0.0459015  
H325     H      0.212940000000     0.974920000000     0.946600000000     0.0281512  
H326     H      0.267160000000     0.483130000000     0.925040000000     0.0395458  
H327     H      0.277540000000     0.549680000000     0.923970000000     0.0486458  
H328     H      0.199270000000     0.595620000000     0.967100000000     0.0376839  
H329     H      0.271950000000     0.559150000000     0.652720000000     0.0379008  
H330     H      0.313020000000     0.560710000000     0.694810000000     0.0392728  
H331     H      0.247640000000     0.492900000000     0.656090000000     0.0332053  
H332     H      0.282260000000     0.960290000000     0.693020000000     0.0439627  
H333     H      0.309290000000     0.561290000000     0.630560000000     0.0329423  
H334     H      0.337140000000     0.031190000000     0.673150000000     0.0348039  
H335     H      0.317480000000     0.972110000000     0.669800000000     0.0415218  
H336     H      0.241330000000     0.436070000000     0.626670000000     0.0276405  
H337     H      0.045600000000     0.710810000000     0.897910000000     0.0339135  
H338     H      0.491750000000     0.711710000000     0.921810000000     0.0383891  
H339     H      0.069850000000     0.767960000000     0.901560000000     0.0285795  
H340     H      0.031860000000     0.808870000000     0.923210000000     0.044912   
H341     H      0.517120000000     0.702250000000     0.865050000000     0.0282779  
H342     H      0.477780000000     0.739130000000     0.890060000000     0.0412306  
H343     H      0.503980000000     0.800010000000     0.889990000000     0.0443974  
H344     H      0.096060000000     0.800840000000     0.846920000000     0.0357455  
H345     H      0.438290000000     0.768240000000     0.653410000000     0.0379843  
H346     H      0.469870000000     0.725340000000     0.625440000000     0.0369143  
H347     H      0.468160000000     0.822660000000     0.648620000000     0.0292338  
H348     H      0.020130000000     0.817300000000     0.620210000000     0.0434786  
H349     H      0.451560000000     0.739040000000     0.684310000000     0.0318318  
H350     H      0.002560000000     0.730940000000     0.654400000000     0.0380917  
H351     H      0.033610000000     0.788720000000     0.651200000000     0.0456421  
H352     H      0.484850000000     0.857050000000     0.708770000000     0.0336463  
H353     H      0.161710000000     0.982700000000     0.772340000000     0.0404415  
H354     H      0.120710000000     0.002380000000     0.733220000000     0.037535   
H355     H      0.164890000000     0.522380000000     0.828550000000     0.027933   
H356     H      0.119410000000     0.558290000000     0.824260000000     0.0423618  
H357     H      0.180320000000     0.999760000000     0.735570000000     0.0314447  
H358     H      0.138810000000     0.042410000000     0.732180000000     0.0360803  
H359     H      0.134890000000     0.577780000000     0.787490000000     0.0385963  
H360     H      0.173740000000     0.582860000000     0.859180000000     0.0250697  
H361     H      0.405820000000     0.550160000000     0.789440000000     0.0355455  
H362     H      0.371540000000     0.545030000000     0.838510000000     0.0361051  
H363     H      0.402940000000     0.992090000000     0.753920000000     0.029506   
H364     H      0.367540000000     0.954560000000     0.784050000000     0.0426952  
H365     H      0.430610000000     0.549640000000     0.826100000000     0.0352926  
H366     H      0.394930000000     0.511250000000     0.853710000000     0.0348469  
H367     H      0.392540000000     0.956440000000     0.820970000000     0.0423127  
H368     H      0.444770000000     0.947130000000     0.733810000000     0.0341439  
H369     H      0.073920000000     0.889950000000     0.806130000000     0.0352915  
H370     H      0.056070000000     0.864120000000     0.753920000000     0.0401213  
H371     H      0.029220000000     0.891450000000     0.850350000000     0.0283144  
H372     H      0.482290000000     0.862720000000     0.829370000000     0.0422174  
H373     H      0.073270000000     0.919420000000     0.772670000000     0.0330748  
H374     H      0.524790000000     0.893830000000     0.749260000000     0.0400758  
H375     H      0.476690000000     0.891980000000     0.796240000000     0.0441793  
H376     H      0.501040000000     0.940680000000     0.884190000000     0.0327022  
H377     H      0.503830000000     0.635540000000     0.810130000000     0.0385848  
H378     H      0.459000000000     0.668300000000     0.788160000000     0.0378323  
H379     H      0.054140000000     0.635120000000     0.764920000000     0.0271493  
H380     H      0.040070000000     0.673330000000     0.721300000000     0.043497   
H381     H      0.470480000000     0.609670000000     0.798950000000     0.0300908  
H382     H      0.458100000000     0.644290000000     0.750300000000     0.0359657  
H383     H      0.005860000000     0.649500000000     0.709080000000     0.0397405  
H384     H      0.082100000000     0.588050000000     0.729170000000     0.0332285  
H385     H      0.883590000000     0.272030000000     0.477000000000     0.0341138  
H386     H      0.844660000000     0.314980000000     0.480220000000     0.0363248  
H387     H      0.877540000000     0.240790000000     0.539110000000     0.0301221  
H388     H      0.845760000000     0.273760000000     0.079120000000     0.0430936  
H389     H      0.906580000000     0.308960000000     0.478320000000     0.033629   
H390     H      0.867210000000     0.336250000000     0.011590000000     0.0341644  
H391     H      0.871160000000     0.308790000000     0.071430000000     0.043616   
H392     H      0.919220000000     0.220690000000     0.084870000000     0.0329271  
H393     H      0.631270000000     0.304740000000     0.021280000000     0.0370179  
H394     H      0.593770000000     0.292400000000     0.066550000000     0.0352498  
H395     H      0.635420000000     0.251100000000     0.477510000000     0.0292401  
H396     H      0.595410000000     0.212540000000     0.497110000000     0.0397408  
H397     H      0.652340000000     0.299880000000     0.060140000000     0.0401132  
H398     H      0.616520000000     0.256730000000     0.077790000000     0.0348819  
H399     H      0.615740000000     0.207080000000     0.536640000000     0.0420174  
H400     H      0.678410000000     0.207430000000     0.458500000000     0.0334678  
H401     H      0.738370000000     0.402560000000     0.469490000000     0.0338777  
H402     H      0.787160000000     0.427010000000     0.492990000000     0.0372902  
H403     H      0.694960000000     0.404660000000     0.513160000000     0.0271925  
H404     H      0.712660000000     0.425230000000     0.068170000000     0.043544   
H405     H      0.769070000000     0.371490000000     0.472300000000     0.0339868  
H406     H      0.789950000000     0.395390000000     0.024260000000     0.0379122  
H407     H      0.742560000000     0.393660000000     0.070290000000     0.0464668  
H408     H      0.651120000000     0.365250000000     0.036690000000     0.0268538  
H409     H      0.747550000000     0.144320000000     0.495930000000     0.0383023  
H410     H      0.794950000000     0.179170000000     0.499030000000     0.037652   
H411     H      0.714090000000     0.146660000000     0.055610000000     0.0300962  
H412     H      0.741770000000     0.185870000000     0.091150000000     0.0438222  
H413     H      0.783130000000     0.119600000000     0.495730000000     0.0389502  
H414     H      0.809420000000     0.156990000000     0.534820000000     0.0351636  
H415     H      0.778210000000     0.162080000000     0.090690000000     0.0407082  
H416     H      0.697510000000     0.107050000000     0.105030000000     0.0331496  
H417     H      0.695700000000     0.496730000000     0.411660000000     0.0350231  
H418     H      0.742830000000     0.467440000000     0.391620000000     0.0387292  
H419     H      0.706080000000     0.557000000000     0.406140000000     0.0269132  
H420     H      0.761060000000     0.071220000000     0.388920000000     0.0459461  
H421     H      0.712940000000     0.474920000000     0.446600000000     0.0281464  
H422     H      0.767170000000     0.983130000000     0.425040000000     0.0395782  
H423     H      0.777540000000     0.049680000000     0.423970000000     0.0486617  
H424     H      0.699270000000     0.095620000000     0.467100000000     0.0376762  
H425     H      0.771950000000     0.059150000000     0.152720000000     0.0378954  
H426     H      0.813020000000     0.060710000000     0.194810000000     0.0392535  
H427     H      0.747640000000     0.992900000000     0.156090000000     0.0332545  
H428     H      0.782260000000     0.460300000000     0.193020000000     0.043995   
H429     H      0.809290000000     0.061290000000     0.130560000000     0.0329469  
H430     H      0.837140000000     0.531190000000     0.173150000000     0.0348233  
H431     H      0.817470000000     0.472110000000     0.169800000000     0.0415229  
H432     H      0.741330000000     0.936070000000     0.126670000000     0.0276481  
H433     H      0.545600000000     0.210810000000     0.397920000000     0.0338625  
H434     H      0.991750000000     0.211710000000     0.421800000000     0.0383913  
H435     H      0.569850000000     0.267960000000     0.401560000000     0.0285611  
H436     H      0.531860000000     0.308870000000     0.423210000000     0.0449558  
H437     H      0.017120000000     0.202250000000     0.365060000000     0.0282544  
H438     H      0.977780000000     0.239130000000     0.390060000000     0.0412431  
H439     H      0.003980000000     0.300010000000     0.389990000000     0.0443994  
H440     H      0.596060000000     0.300840000000     0.346920000000     0.0357426  
H441     H      0.938290000000     0.268240000000     0.153410000000     0.0379929  
H442     H      0.969880000000     0.225340000000     0.125440000000     0.0369106  
H443     H      0.968160000000     0.322660000000     0.148620000000     0.0292084  
H444     H      0.520130000000     0.317300000000     0.120210000000     0.0434511  
H445     H      0.951560000000     0.239040000000     0.184310000000     0.0318498  
H446     H      0.502560000000     0.230940000000     0.154400000000     0.038162   
H447     H      0.533610000000     0.288720000000     0.151200000000     0.0456198  
H448     H      0.984850000000     0.357050000000     0.208780000000     0.0337266  
H449     H      0.661710000000     0.482700000000     0.272340000000     0.0402123  
H450     H      0.620710000000     0.502380000000     0.233220000000     0.0376262  
H451     H      0.664890000000     0.022380000000     0.328550000000     0.027906   
H452     H      0.619410000000     0.058290000000     0.324260000000     0.0423492  
H453     H      0.680320000000     0.499760000000     0.235580000000     0.0312062  
H454     H      0.638810000000     0.542410000000     0.232180000000     0.0361156  
H455     H      0.634890000000     0.077780000000     0.287480000000     0.0385872  
H456     H      0.673740000000     0.082860000000     0.359180000000     0.0250645  
H457     H      0.905820000000     0.050160000000     0.289440000000     0.0355095  
H458     H      0.871540000000     0.045030000000     0.338510000000     0.0361613  
H459     H      0.902940000000     0.492090000000     0.253910000000     0.0294596  
H460     H      0.867540000000     0.454560000000     0.284050000000     0.0426638  
H461     H      0.930610000000     0.049640000000     0.326100000000     0.0352853  
H462     H      0.894930000000     0.011260000000     0.353710000000     0.0348587  
H463     H      0.892540000000     0.456440000000     0.320970000000     0.0422662  
H464     H      0.944770000000     0.447130000000     0.233810000000     0.0341272  
H465     H      0.573920000000     0.389950000000     0.306130000000     0.0352503  
H466     H      0.556070000000     0.364120000000     0.253920000000     0.0401201  
H467     H      0.529220000000     0.391450000000     0.350350000000     0.0282859  
H468     H      0.982290000000     0.362720000000     0.329360000000     0.0422198  
H469     H      0.573270000000     0.419410000000     0.272670000000     0.0330181  
H470     H      0.024790000000     0.393830000000     0.249260000000     0.0400352  
H471     H      0.976690000000     0.391990000000     0.296240000000     0.0441549  
H472     H      0.001040000000     0.440680000000     0.384190000000     0.0325919  
H473     H      0.003830000000     0.135540000000     0.310130000000     0.0384912  
H474     H      0.959000000000     0.168300000000     0.288160000000     0.0378717  
H475     H      0.554140000000     0.135110000000     0.264920000000     0.0271666  
H476     H      0.540070000000     0.173330000000     0.221300000000     0.0434705  
H477     H      0.970490000000     0.109670000000     0.298950000000     0.0300911  
H478     H      0.958100000000     0.144290000000     0.250290000000     0.0359889  
H479     H      0.505860000000     0.149500000000     0.209070000000     0.039719   
H480     H      0.582100000000     0.088050000000     0.229170000000     0.0332317  
H481     H      0.883590000000     0.272030000000     0.977000000000     0.0341439  
H482     H      0.844660000000     0.314980000000     0.980220000000     0.0363447  
H483     H      0.877540000000     0.240790000000     0.039110000000     0.0301149  
H484     H      0.845760000000     0.273760000000     0.579120000000     0.0430937  
H485     H      0.906580000000     0.308960000000     0.978320000000     0.0336576  
H486     H      0.867210000000     0.336250000000     0.511590000000     0.0341688  
H487     H      0.871160000000     0.308790000000     0.571430000000     0.043614   
H488     H      0.919220000000     0.220690000000     0.584870000000     0.0329316  
H489     H      0.631270000000     0.304740000000     0.521280000000     0.0370229  
H490     H      0.593770000000     0.292400000000     0.566550000000     0.035252   
H491     H      0.635420000000     0.251100000000     0.977510000000     0.0292663  
H492     H      0.595410000000     0.212540000000     0.997110000000     0.0397639  
H493     H      0.652340000000     0.299880000000     0.560140000000     0.0401134  
H494     H      0.616520000000     0.256730000000     0.577790000000     0.0348836  
H495     H      0.615740000000     0.207080000000     0.036640000000     0.042015   
H496     H      0.678410000000     0.207430000000     0.958500000000     0.0334627  
H497     H      0.738370000000     0.402560000000     0.969490000000     0.0338685  
H498     H      0.787160000000     0.427010000000     0.992990000000     0.0373194  
H499     H      0.694960000000     0.404660000000     0.013160000000     0.0271821  
H500     H      0.712660000000     0.425230000000     0.568170000000     0.0435427  
H501     H      0.769070000000     0.371490000000     0.972300000000     0.0339803  
H502     H      0.789950000000     0.395390000000     0.524260000000     0.0378999  
H503     H      0.742560000000     0.393660000000     0.570290000000     0.0464647  
H504     H      0.651120000000     0.365250000000     0.536690000000     0.0268581  
H505     H      0.747550000000     0.144320000000     0.995920000000     0.0382783  
H506     H      0.794950000000     0.179170000000     0.999030000000     0.0376869  
H507     H      0.714090000000     0.146660000000     0.555610000000     0.0301023  
H508     H      0.741770000000     0.185870000000     0.591150000000     0.0438222  
H509     H      0.783130000000     0.119600000000     0.995730000000     0.0389358  
H510     H      0.809420000000     0.156990000000     0.034820000000     0.0351728  
H511     H      0.778210000000     0.162080000000     0.590690000000     0.0407079  
H512     H      0.697510000000     0.107050000000     0.605030000000     0.0331514  
H513     H      0.695700000000     0.496730000000     0.911660000000     0.0350217  
H514     H      0.742830000000     0.467440000000     0.891620000000     0.03873    
H515     H      0.706080000000     0.557000000000     0.906140000000     0.0269121  
H516     H      0.761060000000     0.071220000000     0.888920000000     0.0459469  
H517     H      0.712940000000     0.474920000000     0.946600000000     0.0281426  
H518     H      0.767170000000     0.983130000000     0.925040000000     0.0395766  
H519     H      0.777540000000     0.049680000000     0.923970000000     0.0486605  
H520     H      0.699270000000     0.095620000000     0.967100000000     0.0376809  
H521     H      0.771950000000     0.059150000000     0.652720000000     0.0378956  
H522     H      0.813020000000     0.060710000000     0.694810000000     0.0392539  
H523     H      0.747640000000     0.992900000000     0.656090000000     0.0332541  
H524     H      0.782260000000     0.460300000000     0.693020000000     0.0439952  
H525     H      0.809290000000     0.061290000000     0.630560000000     0.0329481  
H526     H      0.837140000000     0.531190000000     0.673150000000     0.0348242  
H527     H      0.817470000000     0.472110000000     0.669800000000     0.0415233  
H528     H      0.741330000000     0.936070000000     0.626670000000     0.0276475  
H529     H      0.545600000000     0.210810000000     0.897910000000     0.0338659  
H530     H      0.991750000000     0.211710000000     0.921810000000     0.0383937  
H531     H      0.569850000000     0.267960000000     0.901560000000     0.0285606  
H532     H      0.531860000000     0.308870000000     0.923210000000     0.0449596  
H533     H      0.017120000000     0.202250000000     0.865050000000     0.0282427  
H534     H      0.977780000000     0.239130000000     0.890060000000     0.0412406  
H535     H      0.003980000000     0.300010000000     0.889990000000     0.0443992  
H536     H      0.596060000000     0.300840000000     0.846920000000     0.0357447  
H537     H      0.938290000000     0.268240000000     0.653410000000     0.0379933  
H538     H      0.969880000000     0.225340000000     0.625440000000     0.0369118  
H539     H      0.968160000000     0.322660000000     0.648620000000     0.0292112  
H540     H      0.520130000000     0.317300000000     0.620210000000     0.0434489  
H541     H      0.951560000000     0.239040000000     0.684310000000     0.0318568  
H542     H      0.502560000000     0.230940000000     0.654400000000     0.0381687  
H543     H      0.533610000000     0.288720000000     0.651200000000     0.0456136  
H544     H      0.984850000000     0.357050000000     0.708770000000     0.0337352  
H545     H      0.661710000000     0.482700000000     0.772340000000     0.0402054  
H546     H      0.620710000000     0.502380000000     0.733220000000     0.037627   
H547     H      0.664890000000     0.022380000000     0.828550000000     0.0279019  
H548     H      0.619410000000     0.058290000000     0.824260000000     0.0423454  
H549     H      0.680320000000     0.499760000000     0.735570000000     0.0311912  
H550     H      0.638810000000     0.542410000000     0.732180000000     0.0361183  
H551     H      0.634890000000     0.077780000000     0.787490000000     0.0385924  
H552     H      0.673740000000     0.082860000000     0.859180000000     0.0250634  
H553     H      0.905820000000     0.050160000000     0.789440000000     0.0355194  
H554     H      0.871540000000     0.045030000000     0.838510000000     0.0361597  
H555     H      0.902940000000     0.492090000000     0.753920000000     0.0294625  
H556     H      0.867540000000     0.454560000000     0.784050000000     0.0426658  
H557     H      0.930610000000     0.049640000000     0.826100000000     0.0352847  
H558     H      0.894930000000     0.011260000000     0.853710000000     0.0348533  
H559     H      0.892540000000     0.456440000000     0.820970000000     0.0422661  
H560     H      0.944770000000     0.447130000000     0.733810000000     0.0341283  
H561     H      0.573920000000     0.389950000000     0.806130000000     0.0352492  
H562     H      0.556070000000     0.364120000000     0.753920000000     0.0401246  
H563     H      0.529220000000     0.391450000000     0.850350000000     0.0282867  
H564     H      0.982290000000     0.362720000000     0.829370000000     0.0422023  
H565     H      0.573270000000     0.419410000000     0.772670000000     0.0330158  
H566     H      0.024790000000     0.393830000000     0.749260000000     0.0400361  
H567     H      0.976690000000     0.391990000000     0.796240000000     0.0441491  
H568     H      0.001040000000     0.440680000000     0.884190000000     0.0325863  
H569     H      0.003830000000     0.135540000000     0.810130000000     0.0384797  
H570     H      0.959000000000     0.168300000000     0.788160000000     0.0378766  
H571     H      0.554140000000     0.135110000000     0.764920000000     0.0271608  
H572     H      0.540070000000     0.173330000000     0.721300000000     0.0434875  
H573     H      0.970490000000     0.109670000000     0.798950000000     0.0300842  
H574     H      0.958100000000     0.144290000000     0.750300000000     0.0360021  
H575     H      0.505860000000     0.149500000000     0.709080000000     0.039747   
H576     H      0.582100000000     0.088050000000     0.729170000000     0.033234   
H577     H      0.883590000000     0.772030000000     0.477000000000     0.034106   
H578     H      0.844660000000     0.814970000000     0.480220000000     0.036346   
H579     H      0.877540000000     0.740790000000     0.539110000000     0.0301172  
H580     H      0.845760000000     0.773760000000     0.079120000000     0.0430921  
H581     H      0.906580000000     0.808960000000     0.478320000000     0.0336336  
H582     H      0.867210000000     0.836250000000     0.011590000000     0.0341807  
H583     H      0.871160000000     0.808790000000     0.071430000000     0.0436227  
H584     H      0.919220000000     0.720700000000     0.084870000000     0.0329428  
H585     H      0.631270000000     0.804740000000     0.021280000000     0.0370223  
H586     H      0.593770000000     0.792400000000     0.066550000000     0.035254   
H587     H      0.635420000000     0.751100000000     0.477510000000     0.0292437  
H588     H      0.595410000000     0.712540000000     0.497110000000     0.0397421  
H589     H      0.652340000000     0.799880000000     0.060140000000     0.0401153  
H590     H      0.616520000000     0.756730000000     0.077790000000     0.0348816  
H591     H      0.615740000000     0.707080000000     0.536640000000     0.042017   
H592     H      0.678410000000     0.707430000000     0.458500000000     0.0334675  
H593     H      0.738370000000     0.902560000000     0.469490000000     0.0338871  
H594     H      0.787160000000     0.927010000000     0.492990000000     0.0373115  
H595     H      0.694960000000     0.904660000000     0.513160000000     0.0272072  
H596     H      0.712660000000     0.925230000000     0.068170000000     0.0435611  
H597     H      0.769070000000     0.871490000000     0.472300000000     0.0339952  
H598     H      0.789950000000     0.895390000000     0.024260000000     0.0379234  
H599     H      0.742560000000     0.893660000000     0.070290000000     0.0464707  
H600     H      0.651120000000     0.865250000000     0.036690000000     0.0268635  
H601     H      0.747550000000     0.644320000000     0.495930000000     0.0382994  
H602     H      0.794950000000     0.679170000000     0.499030000000     0.0376483  
H603     H      0.714090000000     0.646660000000     0.055610000000     0.0300869  
H604     H      0.741770000000     0.685870000000     0.091150000000     0.0438205  
H605     H      0.783130000000     0.619600000000     0.495730000000     0.0389508  
H606     H      0.809420000000     0.656990000000     0.534820000000     0.0351647  
H607     H      0.778210000000     0.662080000000     0.090690000000     0.0407079  
H608     H      0.697510000000     0.607050000000     0.105030000000     0.0331595  
H609     H      0.695700000000     0.996730000000     0.411660000000     0.0350694  
H610     H      0.742830000000     0.967440000000     0.391620000000     0.0387346  
H611     H      0.706080000000     0.057000000000     0.406140000000     0.0268805  
H612     H      0.761060000000     0.571220000000     0.388920000000     0.0459003  
H613     H      0.712940000000     0.974920000000     0.446600000000     0.0281582  
H614     H      0.767170000000     0.483130000000     0.425040000000     0.0395386  
H615     H      0.777540000000     0.549680000000     0.423970000000     0.048645   
H616     H      0.699270000000     0.595620000000     0.467100000000     0.0376804  
H617     H      0.771950000000     0.559150000000     0.152720000000     0.0379062  
H618     H      0.813020000000     0.560710000000     0.194810000000     0.039251   
H619     H      0.747640000000     0.492900000000     0.156090000000     0.0332029  
H620     H      0.782260000000     0.960290000000     0.193020000000     0.0439693  
H621     H      0.809290000000     0.561290000000     0.130560000000     0.0329505  
H622     H      0.837140000000     0.031190000000     0.173150000000     0.0347846  
H623     H      0.817470000000     0.972110000000     0.169800000000     0.041542   
H624     H      0.741330000000     0.436070000000     0.126670000000     0.0276408  
H625     H      0.545600000000     0.710810000000     0.397920000000     0.033898   
H626     H      0.991750000000     0.711710000000     0.421800000000     0.0383819  
H627     H      0.569850000000     0.767960000000     0.401560000000     0.0285703  
H628     H      0.531860000000     0.808870000000     0.423210000000     0.0449209  
H629     H      0.017120000000     0.702250000000     0.365060000000     0.0282893  
H630     H      0.977780000000     0.739130000000     0.390060000000     0.0412313  
H631     H      0.003980000000     0.800010000000     0.389990000000     0.0443641  
H632     H      0.596060000000     0.800840000000     0.346920000000     0.0357413  
H633     H      0.938290000000     0.768240000000     0.153410000000     0.0379924  
H634     H      0.969880000000     0.725340000000     0.125440000000     0.0369123  
H635     H      0.968160000000     0.822660000000     0.148620000000     0.0292156  
H636     H      0.520130000000     0.817300000000     0.120210000000     0.0434567  
H637     H      0.951560000000     0.739040000000     0.184310000000     0.0318529  
H638     H      0.502560000000     0.730940000000     0.154400000000     0.0381693  
H639     H      0.533610000000     0.788720000000     0.151200000000     0.0456197  
H640     H      0.984850000000     0.857050000000     0.208780000000     0.0337286  
H641     H      0.661710000000     0.982700000000     0.272340000000     0.0404445  
H642     H      0.620710000000     0.002380000000     0.233220000000     0.0375399  
H643     H      0.664890000000     0.522380000000     0.328550000000     0.0279375  
H644     H      0.619410000000     0.558290000000     0.324260000000     0.0423716  
H645     H      0.680320000000     0.999760000000     0.235580000000     0.031454   
H646     H      0.638810000000     0.042410000000     0.232180000000     0.0360811  
H647     H      0.634890000000     0.577780000000     0.287480000000     0.0385931  
H648     H      0.673740000000     0.582860000000     0.359180000000     0.0250714  
H649     H      0.905820000000     0.550160000000     0.289440000000     0.0355434  
H650     H      0.871540000000     0.545030000000     0.338510000000     0.0361064  
H651     H      0.902940000000     0.992090000000     0.253910000000     0.029502   
H652     H      0.867540000000     0.954560000000     0.284050000000     0.0426947  
H653     H      0.930610000000     0.549640000000     0.326100000000     0.0353057  
H654     H      0.894930000000     0.511250000000     0.353710000000     0.0348567  
H655     H      0.892540000000     0.956440000000     0.320970000000     0.0423147  
H656     H      0.944770000000     0.947130000000     0.233810000000     0.0341619  
H657     H      0.573920000000     0.889950000000     0.306130000000     0.0352576  
H658     H      0.556070000000     0.864120000000     0.253920000000     0.040124   
H659     H      0.529220000000     0.891450000000     0.350350000000     0.028292   
H660     H      0.982290000000     0.862720000000     0.329360000000     0.0422246  
H661     H      0.573270000000     0.919420000000     0.272670000000     0.0330433  
H662     H      0.024790000000     0.893830000000     0.249260000000     0.0400465  
H663     H      0.976690000000     0.891980000000     0.296240000000     0.0441694  
H664     H      0.001040000000     0.940680000000     0.384190000000     0.0326196  
H665     H      0.003830000000     0.635540000000     0.310130000000     0.038498   
H666     H      0.959000000000     0.668300000000     0.288160000000     0.0378601  
H667     H      0.554140000000     0.635120000000     0.264920000000     0.0271635  
H668     H      0.540070000000     0.673330000000     0.221300000000     0.0434649  
H669     H      0.970490000000     0.609670000000     0.298950000000     0.0300988  
H670     H      0.958100000000     0.644290000000     0.250290000000     0.0359864  
H671     H      0.505860000000     0.649500000000     0.209070000000     0.0397215  
H672     H      0.582100000000     0.588050000000     0.229170000000     0.0332302  
H673     H      0.883590000000     0.772030000000     0.977000000000     0.0341361  
H674     H      0.844660000000     0.814970000000     0.980220000000     0.0363659  
H675     H      0.877540000000     0.740790000000     0.039110000000     0.0301099  
H676     H      0.845760000000     0.773760000000     0.579120000000     0.0430922  
H677     H      0.906580000000     0.808960000000     0.978320000000     0.0336622  
H678     H      0.867210000000     0.836250000000     0.511590000000     0.0341851  
H679     H      0.871160000000     0.808790000000     0.571430000000     0.0436206  
H680     H      0.919220000000     0.720700000000     0.584870000000     0.0329474  
H681     H      0.631270000000     0.804740000000     0.521280000000     0.0370273  
H682     H      0.593770000000     0.792400000000     0.566550000000     0.0352562  
H683     H      0.635420000000     0.751100000000     0.977510000000     0.0292698  
H684     H      0.595410000000     0.712540000000     0.997110000000     0.0397652  
H685     H      0.652340000000     0.799880000000     0.560140000000     0.0401156  
H686     H      0.616520000000     0.756730000000     0.577790000000     0.0348833  
H687     H      0.615740000000     0.707080000000     0.036640000000     0.0420146  
H688     H      0.678410000000     0.707430000000     0.958500000000     0.0334624  
H689     H      0.738370000000     0.902560000000     0.969490000000     0.0338779  
H690     H      0.787160000000     0.927010000000     0.992990000000     0.0373407  
H691     H      0.694960000000     0.904660000000     0.013160000000     0.0271968  
H692     H      0.712660000000     0.925230000000     0.568170000000     0.0435598  
H693     H      0.769070000000     0.871490000000     0.972300000000     0.0339887  
H694     H      0.789950000000     0.895390000000     0.524260000000     0.037911   
H695     H      0.742560000000     0.893660000000     0.570290000000     0.0464686  
H696     H      0.651120000000     0.865250000000     0.536690000000     0.0268678  
H697     H      0.747550000000     0.644320000000     0.995920000000     0.0382753  
H698     H      0.794950000000     0.679170000000     0.999030000000     0.0376832  
H699     H      0.714090000000     0.646660000000     0.555610000000     0.030093   
H700     H      0.741770000000     0.685870000000     0.591150000000     0.0438206  
H701     H      0.783130000000     0.619600000000     0.995730000000     0.0389364  
H702     H      0.809420000000     0.656990000000     0.034820000000     0.0351738  
H703     H      0.778210000000     0.662080000000     0.590690000000     0.0407076  
H704     H      0.697510000000     0.607050000000     0.605030000000     0.0331613  
H705     H      0.695700000000     0.996730000000     0.911660000000     0.035068   
H706     H      0.742830000000     0.967440000000     0.891620000000     0.0387354  
H707     H      0.706080000000     0.057000000000     0.906140000000     0.0268793  
H708     H      0.761060000000     0.571220000000     0.888920000000     0.045901   
H709     H      0.712940000000     0.974920000000     0.946600000000     0.0281544  
H710     H      0.767170000000     0.483130000000     0.925040000000     0.039537   
H711     H      0.777540000000     0.549680000000     0.923970000000     0.0486438  
H712     H      0.699270000000     0.595620000000     0.967100000000     0.0376852  
H713     H      0.771950000000     0.559150000000     0.652720000000     0.0379064  
H714     H      0.813020000000     0.560710000000     0.694810000000     0.0392514  
H715     H      0.747640000000     0.492900000000     0.656090000000     0.0332025  
H716     H      0.782260000000     0.960290000000     0.693020000000     0.0439695  
H717     H      0.809290000000     0.561290000000     0.630560000000     0.0329516  
H718     H      0.837140000000     0.031190000000     0.673150000000     0.0347855  
H719     H      0.817470000000     0.972110000000     0.669800000000     0.0415424  
H720     H      0.741330000000     0.436070000000     0.626670000000     0.0276402  
H721     H      0.545600000000     0.710810000000     0.897910000000     0.0339014  
H722     H      0.991750000000     0.711710000000     0.921810000000     0.0383842  
H723     H      0.569850000000     0.767960000000     0.901560000000     0.0285698  
H724     H      0.531860000000     0.808870000000     0.923210000000     0.0449247  
H725     H      0.017120000000     0.702250000000     0.865050000000     0.0282777  
H726     H      0.977780000000     0.739130000000     0.890060000000     0.0412288  
H727     H      0.003980000000     0.800010000000     0.889990000000     0.0443639  
H728     H      0.596060000000     0.800840000000     0.846920000000     0.0357434  
H729     H      0.938290000000     0.768240000000     0.653410000000     0.0379929  
H730     H      0.969880000000     0.725340000000     0.625440000000     0.0369135  
H731     H      0.968160000000     0.822660000000     0.648620000000     0.0292185  
H732     H      0.520130000000     0.817300000000     0.620210000000     0.0434546  
H733     H      0.951560000000     0.739040000000     0.684310000000     0.0318599  
H734     H      0.502560000000     0.730940000000     0.654400000000     0.038176   
H735     H      0.533610000000     0.788720000000     0.651200000000     0.0456135  
H736     H      0.984850000000     0.857050000000     0.708770000000     0.0337373  
H737     H      0.661710000000     0.982700000000     0.772340000000     0.0404376  
H738     H      0.620710000000     0.002380000000     0.733220000000     0.0375407  
H739     H      0.664890000000     0.522380000000     0.828550000000     0.0279334  
H740     H      0.619410000000     0.558290000000     0.824260000000     0.0423678  
H741     H      0.680320000000     0.999760000000     0.735570000000     0.0314388  
H742     H      0.638810000000     0.042410000000     0.732180000000     0.0360838  
H743     H      0.634890000000     0.577780000000     0.787490000000     0.0385983  
H744     H      0.673740000000     0.582860000000     0.859180000000     0.0250703  
H745     H      0.905820000000     0.550160000000     0.789440000000     0.0355533  
H746     H      0.871540000000     0.545030000000     0.838510000000     0.0361048  
H747     H      0.902940000000     0.992090000000     0.753920000000     0.0295049  
H748     H      0.867540000000     0.954560000000     0.784050000000     0.0426967  
H749     H      0.930610000000     0.549640000000     0.826100000000     0.0353051  
H750     H      0.894930000000     0.511250000000     0.853710000000     0.0348513  
H751     H      0.892540000000     0.956440000000     0.820970000000     0.0423145  
H752     H      0.944770000000     0.947130000000     0.733810000000     0.034163   
H753     H      0.573920000000     0.889950000000     0.806130000000     0.0352566  
H754     H      0.556070000000     0.864120000000     0.753920000000     0.0401284  
H755     H      0.529220000000     0.891450000000     0.850350000000     0.0282927  
H756     H      0.982290000000     0.862720000000     0.829370000000     0.0422071  
H757     H      0.573270000000     0.919420000000     0.772670000000     0.033041   
H758     H      0.024790000000     0.893830000000     0.749260000000     0.0400474  
H759     H      0.976690000000     0.891980000000     0.796240000000     0.0441636  
H760     H      0.001040000000     0.940680000000     0.884190000000     0.0326141  
H761     H      0.003830000000     0.635540000000     0.810130000000     0.0384865  
H762     H      0.959000000000     0.668300000000     0.788160000000     0.037865   
H763     H      0.554140000000     0.635120000000     0.764920000000     0.0271577  
H764     H      0.540070000000     0.673330000000     0.721300000000     0.0434819  
H765     H      0.970490000000     0.609670000000     0.798950000000     0.0300918  
H766     H      0.958100000000     0.644290000000     0.750300000000     0.0359997  
H767     H      0.505860000000     0.649500000000     0.709080000000     0.0397494  
H768     H      0.582100000000     0.588050000000     0.729170000000     0.0332325  
N1       N      0.407580000000     0.279560000000     0.522810000000    -0.182967   
N2       N      0.342340000000     0.295350000000     0.030210000000    -0.178551   
N3       N      0.158230000000     0.261050000000     0.023870000000    -0.182604   
N4       N      0.091970000000     0.252140000000     0.531890000000    -0.179553   
N5       N      0.230910000000     0.368470000000     0.508640000000    -0.185038   
N6       N      0.251710000000     0.428580000000     0.532520000000    -0.178561   
N7       N      0.254690000000     0.118680000000     0.541200000000    -0.183199   
N8       N      0.268360000000     0.185560000000     0.544920000000    -0.179173   
N9       N      0.219820000000     0.526820000000     0.446620000000    -0.18584    
N10      N      0.256040000000     0.518450000000     0.388140000000    -0.177823   
N11      N      0.285020000000     0.015330000000     0.128290000000    -0.182535   
N12      N      0.296880000000     0.510690000000     0.197430000000    -0.178261   
N13      N      0.039150000000     0.249590000000     0.363620000000    -0.185036   
N14      N      0.008670000000     0.261600000000     0.425150000000    -0.177705   
N15      N      0.975850000000     0.285390000000     0.184340000000    -0.185248   
N16      N      0.997030000000     0.269910000000     0.120040000000    -0.177717   
N17      N      0.184440000000     0.028390000000     0.280190000000    -0.182099   
N18      N      0.116580000000     0.030900000000     0.278360000000    -0.178732   
N19      N      0.431720000000     0.006190000000     0.295320000000    -0.18389    
N20      N      0.366760000000     0.999760000000     0.311440000000    -0.179137   
N21      N      0.035580000000     0.423640000000     0.309310000000    -0.183959   
N22      N      0.516520000000     0.360980000000     0.289160000000    -0.177779   
N23      N      0.511260000000     0.107510000000     0.266150000000    -0.183434   
N24      N      0.499410000000     0.174120000000     0.254790000000    -0.178621   
N25      N      0.407580000000     0.279560000000     0.022810000000    -0.182954   
N26      N      0.342340000000     0.295350000000     0.530210000000    -0.17855    
N27      N      0.158230000000     0.261050000000     0.523870000000    -0.182611   
N28      N      0.091970000000     0.252140000000     0.031890000000    -0.179553   
N29      N      0.230910000000     0.368470000000     0.008640000000    -0.185052   
N30      N      0.251710000000     0.428580000000     0.032520000000    -0.178558   
N31      N      0.254690000000     0.118680000000     0.041200000000    -0.183218   
N32      N      0.268360000000     0.185560000000     0.044920000000    -0.179166   
N33      N      0.219820000000     0.526820000000     0.946620000000    -0.185916   
N34      N      0.256040000000     0.518450000000     0.888140000000    -0.177823   
N35      N      0.285020000000     0.015330000000     0.628290000000    -0.182535   
N36      N      0.296880000000     0.510690000000     0.697430000000    -0.178261   
N37      N      0.039150000000     0.249590000000     0.863630000000    -0.184986   
N38      N      0.008670000000     0.261600000000     0.925150000000    -0.177699   
N39      N      0.975850000000     0.285390000000     0.684340000000    -0.185236   
N40      N      0.997030000000     0.269910000000     0.620040000000    -0.177714   
N41      N      0.184440000000     0.028390000000     0.780190000000    -0.182103   
N42      N      0.116580000000     0.030900000000     0.778360000000    -0.178728   
N43      N      0.431720000000     0.006190000000     0.795310000000    -0.18391    
N44      N      0.366760000000     0.999760000000     0.811440000000    -0.179137   
N45      N      0.035580000000     0.423640000000     0.809310000000    -0.183968   
N46      N      0.516520000000     0.360980000000     0.789160000000    -0.177779   
N47      N      0.511260000000     0.107510000000     0.766150000000    -0.183445   
N48      N      0.499410000000     0.174120000000     0.754790000000    -0.178592   
N49      N      0.407580000000     0.779560000000     0.522810000000    -0.182955   
N50      N      0.342340000000     0.795350000000     0.030210000000    -0.178555   
N51      N      0.158230000000     0.761050000000     0.023870000000    -0.182611   
N52      N      0.091970000000     0.752140000000     0.531890000000    -0.179552   
N53      N      0.230910000000     0.868470000000     0.508640000000    -0.185036   
N54      N      0.251710000000     0.928580000000     0.532520000000    -0.178547   
N55      N      0.254690000000     0.618680000000     0.541200000000    -0.183213   
N56      N      0.268360000000     0.685560000000     0.544920000000    -0.179173   
N57      N      0.219820000000     0.026820000000     0.446620000000    -0.185931   
N58      N      0.256040000000     0.018450000000     0.388140000000    -0.177853   
N59      N      0.285020000000     0.515330000000     0.128290000000    -0.182447   
N60      N      0.296880000000     0.010690000000     0.197430000000    -0.178319   
N61      N      0.039150000000     0.749590000000     0.363620000000    -0.185013   
N62      N      0.008670000000     0.761600000000     0.425150000000    -0.177728   
N63      N      0.975850000000     0.785390000000     0.184340000000    -0.185248   
N64      N      0.997030000000     0.769910000000     0.120040000000    -0.177716   
N65      N      0.184440000000     0.528400000000     0.280190000000    -0.182168   
N66      N      0.116580000000     0.530890000000     0.278360000000    -0.17872    
N67      N      0.431720000000     0.506190000000     0.295320000000    -0.183782   
N68      N      0.366760000000     0.499760000000     0.311440000000    -0.179409   
N69      N      0.035580000000     0.923640000000     0.309310000000    -0.183946   
N70      N      0.516520000000     0.860980000000     0.289160000000    -0.177778   
N71      N      0.511260000000     0.607510000000     0.266150000000    -0.183431   
N72      N      0.499410000000     0.674120000000     0.254790000000    -0.178697   
N73      N      0.407580000000     0.779560000000     0.022810000000    -0.182942   
N74      N      0.342340000000     0.795350000000     0.530210000000    -0.178554   
N75      N      0.158230000000     0.761050000000     0.523870000000    -0.182618   
N76      N      0.091970000000     0.752140000000     0.031890000000    -0.179552   
N77      N      0.230910000000     0.868470000000     0.008640000000    -0.18505    
N78      N      0.251710000000     0.928580000000     0.032520000000    -0.178544   
N79      N      0.254690000000     0.618680000000     0.041200000000    -0.183231   
N80      N      0.268360000000     0.685560000000     0.044920000000    -0.179166   
N81      N      0.219820000000     0.026820000000     0.946620000000    -0.186008   
N82      N      0.256040000000     0.018450000000     0.888140000000    -0.177853   
N83      N      0.285020000000     0.515330000000     0.628290000000    -0.182447   
N84      N      0.296880000000     0.010690000000     0.697430000000    -0.178318   
N85      N      0.039150000000     0.749590000000     0.863630000000    -0.184963   
N86      N      0.008670000000     0.761600000000     0.925150000000    -0.177722   
N87      N      0.975850000000     0.785390000000     0.684340000000    -0.185237   
N88      N      0.997030000000     0.769910000000     0.620040000000    -0.177713   
N89      N      0.184440000000     0.528400000000     0.780190000000    -0.182172   
N90      N      0.116580000000     0.530890000000     0.778360000000    -0.178716   
N91      N      0.431720000000     0.506190000000     0.795310000000    -0.183802   
N92      N      0.366760000000     0.499760000000     0.811440000000    -0.17941    
N93      N      0.035580000000     0.923640000000     0.809310000000    -0.183955   
N94      N      0.516520000000     0.860980000000     0.789160000000    -0.177777   
N95      N      0.511260000000     0.607510000000     0.766150000000    -0.183442   
N96      N      0.499410000000     0.674120000000     0.754790000000    -0.178667   
N97      N      0.907580000000     0.279560000000     0.522810000000    -0.182958   
N98      N      0.842340000000     0.295350000000     0.030210000000    -0.178552   
N99      N      0.658230000000     0.261050000000     0.023870000000    -0.182603   
N100     N      0.591970000000     0.252140000000     0.531890000000    -0.179556   
N101     N      0.730910000000     0.368470000000     0.508640000000    -0.185033   
N102     N      0.751710000000     0.428580000000     0.532520000000    -0.178558   
N103     N      0.754690000000     0.118680000000     0.541200000000    -0.183195   
N104     N      0.768360000000     0.185560000000     0.544920000000    -0.179192   
N105     N      0.719820000000     0.526820000000     0.446620000000    -0.18584    
N106     N      0.756050000000     0.518450000000     0.388140000000    -0.177855   
N107     N      0.785020000000     0.015330000000     0.128290000000    -0.182532   
N108     N      0.796880000000     0.510690000000     0.197430000000    -0.178268   
N109     N      0.539150000000     0.249590000000     0.363620000000    -0.18508    
N110     N      0.508670000000     0.261600000000     0.425150000000    -0.177663   
N111     N      0.475850000000     0.285390000000     0.184340000000    -0.185293   
N112     N      0.497030000000     0.269910000000     0.120040000000    -0.177754   
N113     N      0.684440000000     0.028390000000     0.280190000000    -0.182183   
N114     N      0.616570000000     0.030900000000     0.278360000000    -0.178818   
N115     N      0.931720000000     0.006190000000     0.295320000000    -0.183892   
N116     N      0.866760000000     0.999760000000     0.311440000000    -0.179132   
N117     N      0.535580000000     0.423640000000     0.309310000000    -0.183992   
N118     N      0.016520000000     0.360980000000     0.289160000000    -0.177815   
N119     N      0.011260000000     0.107510000000     0.266150000000    -0.18349    
N120     N      0.999410000000     0.174120000000     0.254790000000    -0.178485   
N121     N      0.907580000000     0.279560000000     0.022810000000    -0.182945   
N122     N      0.842340000000     0.295350000000     0.530210000000    -0.178551   
N123     N      0.658230000000     0.261050000000     0.523870000000    -0.18261    
N124     N      0.591970000000     0.252140000000     0.031890000000    -0.179556   
N125     N      0.730910000000     0.368470000000     0.008640000000    -0.185047   
N126     N      0.751710000000     0.428580000000     0.032520000000    -0.178555   
N127     N      0.754690000000     0.118680000000     0.041200000000    -0.183213   
N128     N      0.768360000000     0.185560000000     0.044920000000    -0.179185   
N129     N      0.719820000000     0.526820000000     0.946620000000    -0.185917   
N130     N      0.756050000000     0.518450000000     0.888140000000    -0.177854   
N131     N      0.785020000000     0.015330000000     0.628290000000    -0.182533   
N132     N      0.796880000000     0.510690000000     0.697430000000    -0.178268   
N133     N      0.539150000000     0.249590000000     0.863630000000    -0.18503    
N134     N      0.508670000000     0.261600000000     0.925150000000    -0.177657   
N135     N      0.475850000000     0.285390000000     0.684340000000    -0.185281   
N136     N      0.497030000000     0.269910000000     0.620040000000    -0.17775    
N137     N      0.684440000000     0.028390000000     0.780190000000    -0.182187   
N138     N      0.616570000000     0.030900000000     0.778360000000    -0.178814   
N139     N      0.931720000000     0.006190000000     0.795310000000    -0.183912   
N140     N      0.866760000000     0.999760000000     0.811440000000    -0.179132   
N141     N      0.535580000000     0.423640000000     0.809310000000    -0.184001   
N142     N      0.016520000000     0.360980000000     0.789160000000    -0.177815   
N143     N      0.011260000000     0.107510000000     0.766150000000    -0.183501   
N144     N      0.999410000000     0.174120000000     0.754790000000    -0.178455   
N145     N      0.907580000000     0.779560000000     0.522810000000    -0.182945   
N146     N      0.842340000000     0.795350000000     0.030210000000    -0.178556   
N147     N      0.658230000000     0.761050000000     0.023870000000    -0.182611   
N148     N      0.591970000000     0.752140000000     0.531890000000    -0.179555   
N149     N      0.730910000000     0.868470000000     0.508640000000    -0.185031   
N150     N      0.751710000000     0.928580000000     0.532520000000    -0.178544   
N151     N      0.754690000000     0.618680000000     0.541200000000    -0.183208   
N152     N      0.768360000000     0.685560000000     0.544920000000    -0.179193   
N153     N      0.719820000000     0.026820000000     0.446620000000    -0.185932   
N154     N      0.756050000000     0.018450000000     0.388140000000    -0.177884   
N155     N      0.785020000000     0.515330000000     0.128290000000    -0.182444   
N156     N      0.796880000000     0.010690000000     0.197430000000    -0.178326   
N157     N      0.539150000000     0.749590000000     0.363620000000    -0.185057   
N158     N      0.508670000000     0.761600000000     0.425150000000    -0.177687   
N159     N      0.475850000000     0.785390000000     0.184340000000    -0.185293   
N160     N      0.497030000000     0.769910000000     0.120040000000    -0.177752   
N161     N      0.684440000000     0.528400000000     0.280190000000    -0.182252   
N162     N      0.616570000000     0.530890000000     0.278360000000    -0.178805   
N163     N      0.931720000000     0.506190000000     0.295320000000    -0.183784   
N164     N      0.866760000000     0.499760000000     0.311440000000    -0.179404   
N165     N      0.535580000000     0.923640000000     0.309310000000    -0.183979   
N166     N      0.016520000000     0.860980000000     0.289160000000    -0.177814   
N167     N      0.011260000000     0.607510000000     0.266150000000    -0.183487   
N168     N      0.999410000000     0.674120000000     0.254790000000    -0.178561   
N169     N      0.907580000000     0.779560000000     0.022810000000    -0.182933   
N170     N      0.842340000000     0.795350000000     0.530210000000    -0.178555   
N171     N      0.658230000000     0.761050000000     0.523870000000    -0.182617   
N172     N      0.591970000000     0.752140000000     0.031890000000    -0.179555   
N173     N      0.730910000000     0.868470000000     0.008640000000    -0.185045   
N174     N      0.751710000000     0.928580000000     0.032520000000    -0.178541   
N175     N      0.754690000000     0.618680000000     0.041200000000    -0.183226   
N176     N      0.768360000000     0.685560000000     0.044920000000    -0.179186   
N177     N      0.719820000000     0.026820000000     0.946620000000    -0.186008   
N178     N      0.756050000000     0.018450000000     0.888140000000    -0.177884   
N179     N      0.785020000000     0.515330000000     0.628290000000    -0.182444   
N180     N      0.796880000000     0.010690000000     0.697430000000    -0.178326   
N181     N      0.539150000000     0.749590000000     0.863630000000    -0.185007   
N182     N      0.508670000000     0.761600000000     0.925150000000    -0.17768    
N183     N      0.475850000000     0.785390000000     0.684340000000    -0.185281   
N184     N      0.497030000000     0.769910000000     0.620040000000    -0.177749   
N185     N      0.684440000000     0.528400000000     0.780190000000    -0.182256   
N186     N      0.616570000000     0.530890000000     0.778360000000    -0.178801   
N187     N      0.931720000000     0.506190000000     0.795310000000    -0.183804   
N188     N      0.866760000000     0.499760000000     0.811440000000    -0.179405   
N189     N      0.535580000000     0.923640000000     0.809310000000    -0.183989   
N190     N      0.016520000000     0.860980000000     0.789160000000    -0.177813   
N191     N      0.011260000000     0.607510000000     0.766150000000    -0.183498   
N192     N      0.999410000000     0.674120000000     0.754790000000    -0.178531   
O1       O      0.530120000000     0.464630000000     0.271040000000    -0.558123   
O2       O      0.017090000000     0.054120000000     0.249780000000    -0.551088   
O3       O      0.068250000000     0.515020000000     0.256440000000    -0.559984   
O4       O      0.478120000000     0.002890000000     0.264440000000    -0.55462    
O5       O      0.480510000000     0.517510000000     0.318330000000    -0.560344   
O6       O      0.070820000000     0.028230000000     0.310630000000    -0.555223   
O7       O      0.519230000000     0.066830000000     0.304190000000    -0.561114   
O8       O      0.030790000000     0.477230000000     0.325500000000    -0.553108   
O9       O      0.467210000000     0.276080000000     0.239840000000    -0.558096   
O10      O      0.497980000000     0.258230000000     0.327250000000    -0.561598   
O11      O      0.487110000000     0.313340000000     0.292370000000    -0.5507     
O12      O      0.479070000000     0.222100000000     0.275430000000    -0.557018   
O13      O      0.028840000000     0.221550000000     0.254500000000    -0.558208   
O14      O      0.037090000000     0.312090000000     0.272010000000    -0.560812   
O15      O      0.048420000000     0.257780000000     0.307760000000    -0.553586   
O16      O      0.017610000000     0.276800000000     0.220260000000    -0.557469   
O17      O      0.316270000000     0.480290000000     0.300790000000    -0.559285   
O18      O      0.227640000000     0.494270000000     0.283960000000    -0.559792   
O19      O      0.280230000000     0.486150000000     0.246010000000    -0.55979    
O20      O      0.263410000000     0.488920000000     0.339550000000    -0.554446   
O21      O      0.270950000000     0.042850000000     0.339040000000    -0.562342   
O22      O      0.289940000000     0.039740000000     0.246240000000    -0.556275   
O23      O      0.235880000000     0.048210000000     0.283860000000    -0.551331   
O24      O      0.324230000000     0.034210000000     0.303110000000    -0.558632   
O25      O      0.294000000000     0.521940000000     0.072200000000    -0.551434   
O26      O      0.261920000000     0.025810000000     0.483100000000    -0.559868   
O27      O      0.278430000000     0.069910000000     0.029010000000    -0.561205   
O28      O      0.277480000000     0.477470000000     0.524940000000    -0.558156   
O29      O      0.227390000000     0.477150000000     0.045110000000    -0.560031   
O30      O      0.228770000000     0.069790000000     0.550290000000    -0.554148   
O31      O      0.211610000000     0.525540000000     0.502980000000    -0.558726   
O32      O      0.243550000000     0.020210000000     0.091640000000    -0.561775   
O33      O      0.495080000000     0.240360000000     0.071090000000    -0.550063   
O34      O      0.996900000000     0.237230000000     0.475670000000    -0.552293   
O35      O      0.041320000000     0.231800000000     0.023880000000    -0.5528     
O36      O      0.450950000000     0.245350000000     0.523270000000    -0.554827   
O37      O      0.458780000000     0.299040000000     0.016990000000    -0.553538   
O38      O      0.048660000000     0.285810000000     0.526790000000    -0.560601   
O39      O      0.508470000000     0.290410000000     0.474410000000    -0.560299   
O40      O      0.000430000000     0.294600000000     0.068800000000    -0.560268   
O41      O      0.207860000000     0.261410000000     0.498140000000    -0.547712   
O42      O      0.296760000000     0.283990000000     0.500260000000    -0.553094   
O43      O      0.263170000000     0.228330000000     0.508240000000    -0.554523   
O44      O      0.242540000000     0.317010000000     0.490300000000    -0.554934   
O45      O      0.240480000000     0.326700000000     0.045380000000    -0.558649   
O46      O      0.255280000000     0.236930000000     0.062850000000    -0.561243   
O47      O      0.293480000000     0.289240000000     0.055850000000    -0.560577   
O48      O      0.203760000000     0.274490000000     0.052280000000    -0.563964   
O49      O      0.530120000000     0.464630000000     0.771040000000    -0.558159   
O50      O      0.017090000000     0.054120000000     0.749780000000    -0.551111   
O51      O      0.068250000000     0.515020000000     0.756440000000    -0.559918   
O52      O      0.478120000000     0.002890000000     0.764440000000    -0.554648   
O53      O      0.480510000000     0.517510000000     0.818330000000    -0.560415   
O54      O      0.070820000000     0.028230000000     0.810630000000    -0.555366   
O55      O      0.519230000000     0.066830000000     0.804190000000    -0.561127   
O56      O      0.030790000000     0.477230000000     0.825500000000    -0.553193   
O57      O      0.467210000000     0.276080000000     0.739840000000    -0.558064   
O58      O      0.497980000000     0.258230000000     0.827250000000    -0.561637   
O59      O      0.487110000000     0.313340000000     0.792370000000    -0.550698   
O60      O      0.479070000000     0.222100000000     0.775430000000    -0.557065   
O61      O      0.028840000000     0.221550000000     0.754500000000    -0.558106   
O62      O      0.037090000000     0.312090000000     0.772010000000    -0.560785   
O63      O      0.048420000000     0.257780000000     0.807770000000    -0.553643   
O64      O      0.017610000000     0.276800000000     0.720260000000    -0.557252   
O65      O      0.316270000000     0.480290000000     0.800790000000    -0.559285   
O66      O      0.227640000000     0.494270000000     0.783960000000    -0.559792   
O67      O      0.280230000000     0.486150000000     0.746010000000    -0.55979    
O68      O      0.263410000000     0.488920000000     0.839550000000    -0.554446   
O69      O      0.270950000000     0.042850000000     0.839040000000    -0.562342   
O70      O      0.289940000000     0.039740000000     0.746240000000    -0.556275   
O71      O      0.235880000000     0.048210000000     0.783860000000    -0.551332   
O72      O      0.324230000000     0.034210000000     0.803110000000    -0.558632   
O73      O      0.294000000000     0.521940000000     0.572200000000    -0.551438   
O74      O      0.261920000000     0.025810000000     0.983100000000    -0.559825   
O75      O      0.278430000000     0.069910000000     0.529010000000    -0.561196   
O76      O      0.277480000000     0.477470000000     0.024940000000    -0.558194   
O77      O      0.227390000000     0.477150000000     0.545110000000    -0.560075   
O78      O      0.228770000000     0.069790000000     0.050290000000    -0.554148   
O79      O      0.211610000000     0.525540000000     0.002980000000    -0.558644   
O80      O      0.243550000000     0.020210000000     0.591640000000    -0.561783   
O81      O      0.495080000000     0.240360000000     0.571090000000    -0.549915   
O82      O      0.996900000000     0.237230000000     0.975670000000    -0.552124   
O83      O      0.041320000000     0.231800000000     0.523880000000    -0.552795   
O84      O      0.450950000000     0.245350000000     0.023270000000    -0.554816   
O85      O      0.458780000000     0.299040000000     0.516990000000    -0.553524   
O86      O      0.048660000000     0.285810000000     0.026790000000    -0.560604   
O87      O      0.508470000000     0.290410000000     0.974410000000    -0.560261   
O88      O      0.000430000000     0.294600000000     0.568800000000    -0.560256   
O89      O      0.207860000000     0.261410000000     0.998140000000    -0.547695   
O90      O      0.296760000000     0.283990000000     0.000260000000    -0.553125   
O91      O      0.263170000000     0.228330000000     0.008240000000    -0.554553   
O92      O      0.242540000000     0.317010000000     0.990300000000    -0.554919   
O93      O      0.240480000000     0.326700000000     0.545380000000    -0.558659   
O94      O      0.255280000000     0.236930000000     0.562850000000    -0.561246   
O95      O      0.293480000000     0.289240000000     0.555850000000    -0.56058    
O96      O      0.203760000000     0.274490000000     0.552280000000    -0.563975   
O97      O      0.530120000000     0.964630000000     0.271040000000    -0.557964   
O98      O      0.017090000000     0.554120000000     0.249780000000    -0.551123   
O99      O      0.068250000000     0.015020000000     0.256440000000    -0.559984   
O100     O      0.478120000000     0.502890000000     0.264440000000    -0.55458    
O101     O      0.480510000000     0.017510000000     0.318330000000    -0.560354   
O102     O      0.070820000000     0.528230000000     0.310630000000    -0.555226   
O103     O      0.519230000000     0.566830000000     0.304190000000    -0.561153   
O104     O      0.030790000000     0.977230000000     0.325500000000    -0.552943   
O105     O      0.467210000000     0.776080000000     0.239840000000    -0.558089   
O106     O      0.497980000000     0.758230000000     0.327250000000    -0.561596   
O107     O      0.487110000000     0.813340000000     0.292370000000    -0.550702   
O108     O      0.479070000000     0.722100000000     0.275430000000    -0.556929   
O109     O      0.028840000000     0.721550000000     0.254500000000    -0.558121   
O110     O      0.037090000000     0.812090000000     0.272010000000    -0.560834   
O111     O      0.048420000000     0.757780000000     0.307760000000    -0.553598   
O112     O      0.017610000000     0.776790000000     0.220260000000    -0.5575     
O113     O      0.316270000000     0.980290000000     0.300790000000    -0.559003   
O114     O      0.227640000000     0.994270000000     0.283960000000    -0.559578   
O115     O      0.280230000000     0.986150000000     0.246010000000    -0.559569   
O116     O      0.263410000000     0.988920000000     0.339550000000    -0.554225   
O117     O      0.270950000000     0.542850000000     0.339040000000    -0.562458   
O118     O      0.289940000000     0.539740000000     0.246240000000    -0.556383   
O119     O      0.235880000000     0.548210000000     0.283860000000    -0.551438   
O120     O      0.324230000000     0.534210000000     0.303110000000    -0.558783   
O121     O      0.294000000000     0.021940000000     0.072200000000    -0.551447   
O122     O      0.261920000000     0.525810000000     0.483100000000    -0.559851   
O123     O      0.278430000000     0.569910000000     0.029010000000    -0.561245   
O124     O      0.277480000000     0.977470000000     0.524940000000    -0.557993   
O125     O      0.227390000000     0.977150000000     0.045110000000    -0.55987    
O126     O      0.228770000000     0.569790000000     0.550290000000    -0.554188   
O127     O      0.211610000000     0.025540000000     0.502980000000    -0.558743   
O128     O      0.243550000000     0.520210000000     0.091640000000    -0.561748   
O129     O      0.495080000000     0.740360000000     0.071090000000    -0.550066   
O130     O      0.996900000000     0.737230000000     0.475670000000    -0.5523     
O131     O      0.041320000000     0.731800000000     0.023880000000    -0.552806   
O132     O      0.450950000000     0.745350000000     0.523270000000    -0.554951   
O133     O      0.458780000000     0.799040000000     0.016990000000    -0.553435   
O134     O      0.048660000000     0.785810000000     0.526790000000    -0.560592   
O135     O      0.508470000000     0.790410000000     0.474410000000    -0.560295   
O136     O      0.000430000000     0.794600000000     0.068800000000    -0.560259   
O137     O      0.207860000000     0.761410000000     0.498140000000    -0.547708   
O138     O      0.296760000000     0.784000000000     0.500260000000    -0.553083   
O139     O      0.263170000000     0.728330000000     0.508240000000    -0.554535   
O140     O      0.242540000000     0.817010000000     0.490300000000    -0.554906   
O141     O      0.240480000000     0.826700000000     0.045380000000    -0.558642   
O142     O      0.255280000000     0.736930000000     0.062850000000    -0.561252   
O143     O      0.293480000000     0.789240000000     0.055850000000    -0.560587   
O144     O      0.203760000000     0.774490000000     0.052280000000    -0.563921   
O145     O      0.530120000000     0.964630000000     0.771040000000    -0.558      
O146     O      0.017090000000     0.554120000000     0.749780000000    -0.551147   
O147     O      0.068250000000     0.015020000000     0.756440000000    -0.559919   
O148     O      0.478120000000     0.502890000000     0.764440000000    -0.554607   
O149     O      0.480510000000     0.017510000000     0.818330000000    -0.560426   
O150     O      0.070820000000     0.528230000000     0.810630000000    -0.555369   
O151     O      0.519230000000     0.566830000000     0.804190000000    -0.561167   
O152     O      0.030790000000     0.977230000000     0.825500000000    -0.553029   
O153     O      0.467210000000     0.776080000000     0.739840000000    -0.558057   
O154     O      0.497980000000     0.758230000000     0.827250000000    -0.561635   
O155     O      0.487110000000     0.813340000000     0.792370000000    -0.5507     
O156     O      0.479070000000     0.722100000000     0.775430000000    -0.556977   
O157     O      0.028840000000     0.721550000000     0.754500000000    -0.55802    
O158     O      0.037090000000     0.812090000000     0.772010000000    -0.560807   
O159     O      0.048420000000     0.757780000000     0.807770000000    -0.553655   
O160     O      0.017610000000     0.776790000000     0.720260000000    -0.557283   
O161     O      0.316270000000     0.980290000000     0.800790000000    -0.559003   
O162     O      0.227640000000     0.994270000000     0.783960000000    -0.559578   
O163     O      0.280230000000     0.986150000000     0.746010000000    -0.559568   
O164     O      0.263410000000     0.988920000000     0.839550000000    -0.554225   
O165     O      0.270950000000     0.542850000000     0.839040000000    -0.562458   
O166     O      0.289940000000     0.539740000000     0.746240000000    -0.556383   
O167     O      0.235880000000     0.548210000000     0.783860000000    -0.551438   
O168     O      0.324230000000     0.534210000000     0.803110000000    -0.558783   
O169     O      0.294000000000     0.021940000000     0.572200000000    -0.551451   
O170     O      0.261920000000     0.525810000000     0.983100000000    -0.559808   
O171     O      0.278430000000     0.569910000000     0.529010000000    -0.561236   
O172     O      0.277480000000     0.977470000000     0.024940000000    -0.558031   
O173     O      0.227390000000     0.977150000000     0.545110000000    -0.559914   
O174     O      0.228770000000     0.569790000000     0.050290000000    -0.554188   
O175     O      0.211610000000     0.025540000000     0.002980000000    -0.55866    
O176     O      0.243550000000     0.520210000000     0.591640000000    -0.561756   
O177     O      0.495080000000     0.740360000000     0.571090000000    -0.549919   
O178     O      0.996900000000     0.737230000000     0.975670000000    -0.55213    
O179     O      0.041320000000     0.731800000000     0.523880000000    -0.552801   
O180     O      0.450950000000     0.745350000000     0.023270000000    -0.55494    
O181     O      0.458780000000     0.799040000000     0.516990000000    -0.553421   
O182     O      0.048660000000     0.785810000000     0.026790000000    -0.560595   
O183     O      0.508470000000     0.790410000000     0.974410000000    -0.560257   
O184     O      0.000430000000     0.794600000000     0.568800000000    -0.560246   
O185     O      0.207860000000     0.761410000000     0.998140000000    -0.547691   
O186     O      0.296760000000     0.784000000000     0.000260000000    -0.553113   
O187     O      0.263170000000     0.728330000000     0.008240000000    -0.554565   
O188     O      0.242540000000     0.817010000000     0.990300000000    -0.554892   
O189     O      0.240480000000     0.826700000000     0.545380000000    -0.558651   
O190     O      0.255280000000     0.736930000000     0.562850000000    -0.561256   
O191     O      0.293480000000     0.789240000000     0.555850000000    -0.560591   
O192     O      0.203760000000     0.774490000000     0.552280000000    -0.563932   
O193     O      0.030120000000     0.464630000000     0.271040000000    -0.55811    
O194     O      0.517100000000     0.054120000000     0.249780000000    -0.551112   
O195     O      0.568250000000     0.515020000000     0.256440000000    -0.560023   
O196     O      0.978120000000     0.002890000000     0.264440000000    -0.554517   
O197     O      0.980510000000     0.517510000000     0.318330000000    -0.560251   
O198     O      0.570820000000     0.028230000000     0.310630000000    -0.55525    
O199     O      0.019230000000     0.066830000000     0.304190000000    -0.561131   
O200     O      0.530800000000     0.477230000000     0.325500000000    -0.553084   
O201     O      0.967200000000     0.276080000000     0.239840000000    -0.557782   
O202     O      0.997980000000     0.258230000000     0.327250000000    -0.561482   
O203     O      0.987110000000     0.313340000000     0.292370000000    -0.55057    
O204     O      0.979070000000     0.222100000000     0.275430000000    -0.556839   
O205     O      0.528840000000     0.221550000000     0.254500000000    -0.558296   
O206     O      0.537090000000     0.312090000000     0.272010000000    -0.560882   
O207     O      0.548420000000     0.257780000000     0.307760000000    -0.553656   
O208     O      0.517610000000     0.276800000000     0.220260000000    -0.557503   
O209     O      0.816270000000     0.480290000000     0.300790000000    -0.559142   
O210     O      0.727640000000     0.494270000000     0.283960000000    -0.559872   
O211     O      0.780230000000     0.486150000000     0.246010000000    -0.559759   
O212     O      0.763400000000     0.488920000000     0.339550000000    -0.554466   
O213     O      0.770940000000     0.042850000000     0.339040000000    -0.562361   
O214     O      0.789940000000     0.039740000000     0.246240000000    -0.556266   
O215     O      0.735880000000     0.048210000000     0.283860000000    -0.551235   
O216     O      0.824230000000     0.034210000000     0.303110000000    -0.558627   
O217     O      0.794000000000     0.521940000000     0.072200000000    -0.551431   
O218     O      0.761920000000     0.025810000000     0.483100000000    -0.559868   
O219     O      0.778430000000     0.069910000000     0.029010000000    -0.561204   
O220     O      0.777480000000     0.477470000000     0.524940000000    -0.558154   
O221     O      0.727390000000     0.477150000000     0.045110000000    -0.560031   
O222     O      0.728770000000     0.069790000000     0.550290000000    -0.554148   
O223     O      0.711610000000     0.525540000000     0.502980000000    -0.558725   
O224     O      0.743550000000     0.020210000000     0.091640000000    -0.561775   
O225     O      0.995080000000     0.240360000000     0.071090000000    -0.550053   
O226     O      0.496900000000     0.237230000000     0.475670000000    -0.552401   
O227     O      0.541320000000     0.231800000000     0.023880000000    -0.552773   
O228     O      0.950940000000     0.245350000000     0.523270000000    -0.554695   
O229     O      0.958780000000     0.299040000000     0.016990000000    -0.553475   
O230     O      0.548660000000     0.285810000000     0.526790000000    -0.560624   
O231     O      0.008470000000     0.290410000000     0.474410000000    -0.560271   
O232     O      0.500430000000     0.294600000000     0.068800000000    -0.560192   
O233     O      0.707860000000     0.261410000000     0.498140000000    -0.54776    
O234     O      0.796750000000     0.283990000000     0.500260000000    -0.553231   
O235     O      0.763170000000     0.228330000000     0.508240000000    -0.554566   
O236     O      0.742540000000     0.317010000000     0.490300000000    -0.554993   
O237     O      0.740480000000     0.326700000000     0.045380000000    -0.55866    
O238     O      0.755280000000     0.236930000000     0.062850000000    -0.561239   
O239     O      0.793480000000     0.289240000000     0.055850000000    -0.56055    
O240     O      0.703760000000     0.274490000000     0.052280000000    -0.563956   
O241     O      0.030120000000     0.464630000000     0.771040000000    -0.558147   
O242     O      0.517100000000     0.054120000000     0.749780000000    -0.551135   
O243     O      0.568250000000     0.515020000000     0.756440000000    -0.559957   
O244     O      0.978120000000     0.002890000000     0.764440000000    -0.554544   
O245     O      0.980510000000     0.517510000000     0.818330000000    -0.560323   
O246     O      0.570820000000     0.028230000000     0.810630000000    -0.555393   
O247     O      0.019230000000     0.066830000000     0.804190000000    -0.561145   
O248     O      0.530800000000     0.477230000000     0.825500000000    -0.55317    
O249     O      0.967200000000     0.276080000000     0.739840000000    -0.55775    
O250     O      0.997980000000     0.258230000000     0.827250000000    -0.561521   
O251     O      0.987110000000     0.313340000000     0.792370000000    -0.550568   
O252     O      0.979070000000     0.222100000000     0.775430000000    -0.556886   
O253     O      0.528840000000     0.221550000000     0.754500000000    -0.558194   
O254     O      0.537090000000     0.312090000000     0.772010000000    -0.560855   
O255     O      0.548420000000     0.257780000000     0.807770000000    -0.553713   
O256     O      0.517610000000     0.276800000000     0.720260000000    -0.557287   
O257     O      0.816270000000     0.480290000000     0.800790000000    -0.559142   
O258     O      0.727640000000     0.494270000000     0.783960000000    -0.559872   
O259     O      0.780230000000     0.486150000000     0.746010000000    -0.559759   
O260     O      0.763400000000     0.488920000000     0.839550000000    -0.554466   
O261     O      0.770940000000     0.042850000000     0.839040000000    -0.56236    
O262     O      0.789940000000     0.039740000000     0.746240000000    -0.556266   
O263     O      0.735880000000     0.048210000000     0.783860000000    -0.551235   
O264     O      0.824230000000     0.034210000000     0.803110000000    -0.558627   
O265     O      0.794000000000     0.521940000000     0.572200000000    -0.551435   
O266     O      0.761920000000     0.025810000000     0.983100000000    -0.559825   
O267     O      0.778430000000     0.069910000000     0.529010000000    -0.561194   
O268     O      0.777480000000     0.477470000000     0.024940000000    -0.558193   
O269     O      0.727390000000     0.477150000000     0.545110000000    -0.560074   
O270     O      0.728770000000     0.069790000000     0.050290000000    -0.554147   
O271     O      0.711610000000     0.525540000000     0.002980000000    -0.558642   
O272     O      0.743550000000     0.020210000000     0.591640000000    -0.561783   
O273     O      0.995080000000     0.240360000000     0.571090000000    -0.549906   
O274     O      0.496900000000     0.237230000000     0.975670000000    -0.552231   
O275     O      0.541320000000     0.231800000000     0.523880000000    -0.552768   
O276     O      0.950940000000     0.245350000000     0.023270000000    -0.554684   
O277     O      0.958780000000     0.299040000000     0.516990000000    -0.553461   
O278     O      0.548660000000     0.285810000000     0.026790000000    -0.560627   
O279     O      0.008470000000     0.290410000000     0.974410000000    -0.560233   
O280     O      0.500430000000     0.294600000000     0.568800000000    -0.560179   
O281     O      0.707860000000     0.261410000000     0.998140000000    -0.547743   
O282     O      0.796750000000     0.283990000000     0.000260000000    -0.553262   
O283     O      0.763170000000     0.228330000000     0.008240000000    -0.554596   
O284     O      0.742540000000     0.317010000000     0.990300000000    -0.554979   
O285     O      0.740480000000     0.326700000000     0.545380000000    -0.55867    
O286     O      0.755280000000     0.236930000000     0.562850000000    -0.561243   
O287     O      0.793480000000     0.289240000000     0.555850000000    -0.560553   
O288     O      0.703760000000     0.274490000000     0.552280000000    -0.563966   
O289     O      0.030120000000     0.964630000000     0.271040000000    -0.557951   
O290     O      0.517100000000     0.554120000000     0.249780000000    -0.551147   
O291     O      0.568250000000     0.015020000000     0.256440000000    -0.560023   
O292     O      0.978120000000     0.502890000000     0.264440000000    -0.554476   
O293     O      0.980510000000     0.017510000000     0.318330000000    -0.560262   
O294     O      0.570820000000     0.528230000000     0.310630000000    -0.555253   
O295     O      0.019230000000     0.566830000000     0.304190000000    -0.561171   
O296     O      0.530800000000     0.977230000000     0.325500000000    -0.55292    
O297     O      0.967200000000     0.776080000000     0.239840000000    -0.557775   
O298     O      0.997980000000     0.758230000000     0.327250000000    -0.56148    
O299     O      0.987110000000     0.813340000000     0.292370000000    -0.550572   
O300     O      0.979070000000     0.722100000000     0.275430000000    -0.556751   
O301     O      0.528840000000     0.721550000000     0.254500000000    -0.558209   
O302     O      0.537090000000     0.812090000000     0.272010000000    -0.560904   
O303     O      0.548420000000     0.757780000000     0.307760000000    -0.553668   
O304     O      0.517610000000     0.776790000000     0.220260000000    -0.557534   
O305     O      0.816270000000     0.980290000000     0.300790000000    -0.55886    
O306     O      0.727640000000     0.994270000000     0.283960000000    -0.559658   
O307     O      0.780230000000     0.986150000000     0.246010000000    -0.559537   
O308     O      0.763400000000     0.988920000000     0.339550000000    -0.554246   
O309     O      0.770940000000     0.542850000000     0.339040000000    -0.562476   
O310     O      0.789940000000     0.539740000000     0.246240000000    -0.556374   
O311     O      0.735880000000     0.548210000000     0.283860000000    -0.551341   
O312     O      0.824230000000     0.534210000000     0.303110000000    -0.558778   
O313     O      0.794000000000     0.021940000000     0.072200000000    -0.551445   
O314     O      0.761920000000     0.525810000000     0.483100000000    -0.559851   
O315     O      0.778430000000     0.569910000000     0.029010000000    -0.561244   
O316     O      0.777480000000     0.977470000000     0.524940000000    -0.557991   
O317     O      0.727390000000     0.977150000000     0.045110000000    -0.55987    
O318     O      0.728770000000     0.569790000000     0.550290000000    -0.554187   
O319     O      0.711610000000     0.025540000000     0.502980000000    -0.558742   
O320     O      0.743550000000     0.520210000000     0.091640000000    -0.561748   
O321     O      0.995080000000     0.740360000000     0.071090000000    -0.550057   
O322     O      0.496900000000     0.737230000000     0.475670000000    -0.552407   
O323     O      0.541320000000     0.731800000000     0.023880000000    -0.552779   
O324     O      0.950940000000     0.745350000000     0.523270000000    -0.554819   
O325     O      0.958780000000     0.799040000000     0.016990000000    -0.553373   
O326     O      0.548660000000     0.785810000000     0.526790000000    -0.560615   
O327     O      0.008470000000     0.790410000000     0.474410000000    -0.560266   
O328     O      0.500430000000     0.794600000000     0.068800000000    -0.560183   
O329     O      0.707860000000     0.761410000000     0.498140000000    -0.547756   
O330     O      0.796750000000     0.784000000000     0.500260000000    -0.553219   
O331     O      0.763170000000     0.728330000000     0.508240000000    -0.554578   
O332     O      0.742540000000     0.817010000000     0.490300000000    -0.554966   
O333     O      0.740480000000     0.826700000000     0.045380000000    -0.558653   
O334     O      0.755280000000     0.736930000000     0.062850000000    -0.561249   
O335     O      0.793480000000     0.789240000000     0.055850000000    -0.56056    
O336     O      0.703760000000     0.774490000000     0.052280000000    -0.563912   
O337     O      0.030120000000     0.964630000000     0.771040000000    -0.557987   
O338     O      0.517100000000     0.554120000000     0.749780000000    -0.55117    
O339     O      0.568250000000     0.015020000000     0.756440000000    -0.559957   
O340     O      0.978120000000     0.502890000000     0.764440000000    -0.554504   
O341     O      0.980510000000     0.017510000000     0.818330000000    -0.560333   
O342     O      0.570820000000     0.528230000000     0.810630000000    -0.555396   
O343     O      0.019230000000     0.566830000000     0.804190000000    -0.561184   
O344     O      0.530800000000     0.977230000000     0.825500000000    -0.553006   
O345     O      0.967200000000     0.776080000000     0.739840000000    -0.557743   
O346     O      0.997980000000     0.758230000000     0.827250000000    -0.561519   
O347     O      0.987110000000     0.813340000000     0.792370000000    -0.550569   
O348     O      0.979070000000     0.722100000000     0.775430000000    -0.556798   
O349     O      0.528840000000     0.721550000000     0.754500000000    -0.558107   
O350     O      0.537090000000     0.812090000000     0.772010000000    -0.560878   
O351     O      0.548420000000     0.757780000000     0.807770000000    -0.553725   
O352     O      0.517610000000     0.776790000000     0.720260000000    -0.557318   
O353     O      0.816270000000     0.980290000000     0.800790000000    -0.55886    
O354     O      0.727640000000     0.994270000000     0.783960000000    -0.559658   
O355     O      0.780230000000     0.986150000000     0.746010000000    -0.559537   
O356     O      0.763400000000     0.988920000000     0.839550000000    -0.554246   
O357     O      0.770940000000     0.542850000000     0.839040000000    -0.562476   
O358     O      0.789940000000     0.539740000000     0.746240000000    -0.556374   
O359     O      0.735880000000     0.548210000000     0.783860000000    -0.551342   
O360     O      0.824230000000     0.534210000000     0.803110000000    -0.558778   
O361     O      0.794000000000     0.021940000000     0.572200000000    -0.551448   
O362     O      0.761920000000     0.525810000000     0.983100000000    -0.559808   
O363     O      0.778430000000     0.569910000000     0.529010000000    -0.561234   
O364     O      0.777480000000     0.977470000000     0.024940000000    -0.55803    
O365     O      0.727390000000     0.977150000000     0.545110000000    -0.559913   
O366     O      0.728770000000     0.569790000000     0.050290000000    -0.554187   
O367     O      0.711610000000     0.025540000000     0.002980000000    -0.558659   
O368     O      0.743550000000     0.520210000000     0.591640000000    -0.561756   
O369     O      0.995080000000     0.740360000000     0.571090000000    -0.549909   
O370     O      0.496900000000     0.737230000000     0.975670000000    -0.552238   
O371     O      0.541320000000     0.731800000000     0.523880000000    -0.552774   
O372     O      0.950940000000     0.745350000000     0.023270000000    -0.554808   
O373     O      0.958780000000     0.799040000000     0.516990000000    -0.553359   
O374     O      0.548660000000     0.785810000000     0.026790000000    -0.560618   
O375     O      0.008470000000     0.790410000000     0.974410000000    -0.560229   
O376     O      0.500430000000     0.794600000000     0.568800000000    -0.56017    
O377     O      0.707860000000     0.761410000000     0.998140000000    -0.547739   
O378     O      0.796750000000     0.784000000000     0.000260000000    -0.55325    
O379     O      0.763170000000     0.728330000000     0.008240000000    -0.554608   
O380     O      0.742540000000     0.817010000000     0.990300000000    -0.554951   
O381     O      0.740480000000     0.826700000000     0.545380000000    -0.558663   
O382     O      0.755280000000     0.736930000000     0.562850000000    -0.561252   
O383     O      0.793480000000     0.789240000000     0.555850000000    -0.560564   
O384     O      0.703760000000     0.774490000000     0.552280000000    -0.563923   
S1       S      0.411200000000     0.253140000000     0.085880000000    -0.0459524  
S2       S      0.166140000000     0.203340000000     0.490080000000    -0.0444812  
S3       S      0.180220000000     0.364400000000     0.052750000000    -0.0483658  
S4       S      0.229020000000     0.116820000000     0.104710000000    -0.0450876  
S5       S      0.226300000000     0.093080000000     0.447630000000    -0.058964   
S6       S      0.270640000000     0.450770000000     0.122430000000    -0.0444126  
S7       S      0.067270000000     0.310180000000     0.360560000000    -0.0469471  
S8       S      0.006660000000     0.344530000000     0.186460000000    -0.052813   
S9       S      0.188460000000     0.075100000000     0.329520000000    -0.0352955  
S10      S      0.435140000000     0.445330000000     0.266590000000    -0.0453187  
S11      S      0.486500000000     0.429930000000     0.355430000000    -0.0415922  
S12      S      0.055880000000     0.103240000000     0.215360000000    -0.0434863  
S13      S      0.411200000000     0.253140000000     0.585880000000    -0.0459659  
S14      S      0.166140000000     0.203340000000     0.990080000000    -0.0444409  
S15      S      0.180220000000     0.364400000000     0.552750000000    -0.0483627  
S16      S      0.229020000000     0.116820000000     0.604710000000    -0.0450857  
S17      S      0.226300000000     0.093080000000     0.947630000000    -0.0589633  
S18      S      0.270640000000     0.450770000000     0.622430000000    -0.0444237  
S19      S      0.067270000000     0.310180000000     0.860560000000    -0.0469506  
S20      S      0.006660000000     0.344530000000     0.686460000000    -0.0528211  
S21      S      0.188460000000     0.075100000000     0.829520000000    -0.0352984  
S22      S      0.435140000000     0.445330000000     0.766590000000    -0.0453234  
S23      S      0.486500000000     0.429930000000     0.855430000000    -0.0415982  
S24      S      0.055880000000     0.103240000000     0.715360000000    -0.0434873  
S25      S      0.411200000000     0.753140000000     0.085880000000    -0.0459722  
S26      S      0.166140000000     0.703340000000     0.490080000000    -0.0444945  
S27      S      0.180220000000     0.864400000000     0.052750000000    -0.0483484  
S28      S      0.229020000000     0.616820000000     0.104710000000    -0.0451001  
S29      S      0.226300000000     0.593080000000     0.447630000000    -0.0589597  
S30      S      0.270640000000     0.950770000000     0.122430000000    -0.044356   
S31      S      0.067270000000     0.810180000000     0.360560000000    -0.0469346  
S32      S      0.006660000000     0.844530000000     0.186460000000    -0.0528109  
S33      S      0.188460000000     0.575100000000     0.329520000000    -0.0352975  
S34      S      0.435140000000     0.945330000000     0.266590000000    -0.0452817  
S35      S      0.486500000000     0.929930000000     0.355430000000    -0.0415318  
S36      S      0.055880000000     0.603240000000     0.215360000000    -0.04347    
S37      S      0.411200000000     0.753140000000     0.585880000000    -0.0459856  
S38      S      0.166140000000     0.703340000000     0.990080000000    -0.0444542  
S39      S      0.180220000000     0.864400000000     0.552750000000    -0.0483453  
S40      S      0.229020000000     0.616820000000     0.604710000000    -0.0450982  
S41      S      0.226300000000     0.593080000000     0.947630000000    -0.058959   
S42      S      0.270640000000     0.950770000000     0.622430000000    -0.0443671  
S43      S      0.067270000000     0.810180000000     0.860560000000    -0.0469381  
S44      S      0.006660000000     0.844530000000     0.686460000000    -0.0528189  
S45      S      0.188460000000     0.575100000000     0.829520000000    -0.0353003  
S46      S      0.435140000000     0.945330000000     0.766590000000    -0.0452863  
S47      S      0.486500000000     0.929930000000     0.855430000000    -0.0415379  
S48      S      0.055880000000     0.603240000000     0.715360000000    -0.0434711  
S49      S      0.911190000000     0.253140000000     0.085880000000    -0.0459542  
S50      S      0.666140000000     0.203340000000     0.490080000000    -0.0444787  
S51      S      0.680220000000     0.364400000000     0.052750000000    -0.0483509  
S52      S      0.729020000000     0.116820000000     0.104710000000    -0.0450878  
S53      S      0.726300000000     0.093080000000     0.447630000000    -0.0589671  
S54      S      0.770640000000     0.450770000000     0.122430000000    -0.0444139  
S55      S      0.567270000000     0.310180000000     0.360560000000    -0.0469495  
S56      S      0.506660000000     0.344530000000     0.186460000000    -0.0526303  
S57      S      0.688460000000     0.075100000000     0.329520000000    -0.0352924  
S58      S      0.935140000000     0.445330000000     0.266590000000    -0.0453074  
S59      S      0.986500000000     0.429930000000     0.355430000000    -0.0413674  
S60      S      0.555880000000     0.103240000000     0.215360000000    -0.043454   
S61      S      0.911190000000     0.253140000000     0.585880000000    -0.0459676  
S62      S      0.666140000000     0.203340000000     0.990080000000    -0.0444383  
S63      S      0.680220000000     0.364400000000     0.552750000000    -0.0483479  
S64      S      0.729020000000     0.116820000000     0.604710000000    -0.0450858  
S65      S      0.726300000000     0.093080000000     0.947630000000    -0.0589663  
S66      S      0.770640000000     0.450770000000     0.622430000000    -0.044425   
S67      S      0.567270000000     0.310180000000     0.860560000000    -0.046953   
S68      S      0.506660000000     0.344530000000     0.686460000000    -0.0526383  
S69      S      0.688460000000     0.075100000000     0.829520000000    -0.0352953  
S70      S      0.935140000000     0.445330000000     0.766590000000    -0.0453121  
S71      S      0.986500000000     0.429930000000     0.855430000000    -0.0413734  
S72      S      0.555880000000     0.103240000000     0.715360000000    -0.0434551  
S73      S      0.911190000000     0.753140000000     0.085880000000    -0.0459739  
S74      S      0.666140000000     0.703340000000     0.490080000000    -0.044492   
S75      S      0.680220000000     0.864400000000     0.052750000000    -0.0483335  
S76      S      0.729020000000     0.616820000000     0.104710000000    -0.0451003  
S77      S      0.726300000000     0.593080000000     0.447630000000    -0.0589628  
S78      S      0.770640000000     0.950770000000     0.122430000000    -0.0443573  
S79      S      0.567270000000     0.810180000000     0.360560000000    -0.046937   
S80      S      0.506660000000     0.844530000000     0.186460000000    -0.0526282  
S81      S      0.688460000000     0.575100000000     0.329520000000    -0.0352944  
S82      S      0.935140000000     0.945330000000     0.266590000000    -0.0452704  
S83      S      0.986500000000     0.929930000000     0.355430000000    -0.0413071  
S84      S      0.555880000000     0.603240000000     0.215360000000    -0.0434378  
S85      S      0.911190000000     0.753140000000     0.585880000000    -0.0459874  
S86      S      0.666140000000     0.703340000000     0.990080000000    -0.0444516  
S87      S      0.680220000000     0.864400000000     0.552750000000    -0.0483304  
S88      S      0.729020000000     0.616820000000     0.604710000000    -0.0450983  
S89      S      0.726300000000     0.593080000000     0.947630000000    -0.0589621  
S90      S      0.770640000000     0.950770000000     0.622430000000    -0.0443684  
S91      S      0.567270000000     0.810180000000     0.860560000000    -0.0469405  
S92      S      0.506660000000     0.844530000000     0.686460000000    -0.0526362  
S93      S      0.688460000000     0.575100000000     0.829520000000    -0.0352973  
S94      S      0.935140000000     0.945330000000     0.766590000000    -0.045275   
S95      S      0.986500000000     0.929930000000     0.855430000000    -0.0413131  
S96      S      0.555880000000     0.603240000000     0.715360000000    -0.0434388  
V1       V      0.023210000000     0.508670000000     0.258240000000     1.39111    
V2       V      0.025630000000     0.022790000000     0.316870000000     1.39451    
V3       V      0.480800000000     0.267600000000     0.284480000000     1.38782    
V4       V      0.035040000000     0.266870000000     0.262960000000     1.39748    
V5       V      0.271570000000     0.485240000000     0.292600000000     1.39218    
V6       V      0.280580000000     0.043410000000     0.292850000000     1.39639    
V7       V      0.280020000000     0.023790000000     0.026630000000     1.39493    
V8       V      0.225780000000     0.023310000000     0.548220000000     1.39917    
V9       V      0.995720000000     0.236460000000     0.023440000000     1.37327    
V10      V      0.004260000000     0.294640000000     0.521530000000     1.40233    
V11      V      0.252660000000     0.272220000000     0.496970000000     1.37303    
V12      V      0.248260000000     0.282260000000     0.056290000000     1.41175    
V13      V      0.023210000000     0.508670000000     0.758240000000     1.39128    
V14      V      0.025630000000     0.022790000000     0.816880000000     1.39466    
V15      V      0.480800000000     0.267600000000     0.784480000000     1.38783    
V16      V      0.035040000000     0.266870000000     0.762970000000     1.39715    
V17      V      0.271570000000     0.485240000000     0.792600000000     1.39218    
V18      V      0.280580000000     0.043410000000     0.792850000000     1.39639    
V19      V      0.280020000000     0.023790000000     0.526630000000     1.39493    
V20      V      0.225780000000     0.023310000000     0.048220000000     1.39913    
V21      V      0.995720000000     0.236460000000     0.523430000000     1.3733     
V22      V      0.004260000000     0.294640000000     0.021530000000     1.40231    
V23      V      0.252660000000     0.272220000000     0.996970000000     1.37311    
V24      V      0.248260000000     0.282260000000     0.556290000000     1.4118     
V25      V      0.023210000000     0.008670000000     0.258240000000     1.39087    
V26      V      0.025630000000     0.522790000000     0.316870000000     1.39471    
V27      V      0.480800000000     0.767600000000     0.284480000000     1.3878     
V28      V      0.035040000000     0.766870000000     0.262960000000     1.39754    
V29      V      0.271570000000     0.985250000000     0.292600000000     1.39219    
V30      V      0.280580000000     0.543410000000     0.292850000000     1.39689    
V31      V      0.280020000000     0.523790000000     0.026630000000     1.39514    
V32      V      0.225780000000     0.523310000000     0.548220000000     1.39938    
V33      V      0.995720000000     0.736460000000     0.023440000000     1.37332    
V34      V      0.004260000000     0.794640000000     0.521530000000     1.40229    
V35      V      0.252660000000     0.772220000000     0.496970000000     1.37296    
V36      V      0.248260000000     0.782260000000     0.056290000000     1.41176    
V37      V      0.023210000000     0.008670000000     0.758240000000     1.39104    
V38      V      0.025630000000     0.522790000000     0.816880000000     1.39486    
V39      V      0.480800000000     0.767600000000     0.784480000000     1.3878     
V40      V      0.035040000000     0.766870000000     0.762970000000     1.39721    
V41      V      0.271570000000     0.985250000000     0.792600000000     1.39219    
V42      V      0.280580000000     0.543410000000     0.792850000000     1.39689    
V43      V      0.280020000000     0.523790000000     0.526630000000     1.39514    
V44      V      0.225780000000     0.523310000000     0.048220000000     1.39935    
V45      V      0.995720000000     0.736460000000     0.523430000000     1.37335    
V46      V      0.004260000000     0.794640000000     0.021530000000     1.40228    
V47      V      0.252660000000     0.772220000000     0.996970000000     1.37304    
V48      V      0.248260000000     0.782260000000     0.556290000000     1.4118     
V49      V      0.523210000000     0.508670000000     0.258240000000     1.39127    
V50      V      0.525630000000     0.022790000000     0.316870000000     1.39458    
V51      V      0.980810000000     0.267600000000     0.284480000000     1.38764    
V52      V      0.535040000000     0.266870000000     0.262960000000     1.39782    
V53      V      0.771560000000     0.485240000000     0.292600000000     1.39216    
V54      V      0.780580000000     0.043410000000     0.292850000000     1.39637    
V55      V      0.780020000000     0.023790000000     0.026630000000     1.39493    
V56      V      0.725780000000     0.023310000000     0.548220000000     1.39917    
V57      V      0.495720000000     0.236460000000     0.023440000000     1.37333    
V58      V      0.504260000000     0.294640000000     0.521530000000     1.40251    
V59      V      0.752660000000     0.272220000000     0.496970000000     1.37333    
V60      V      0.748260000000     0.282260000000     0.056290000000     1.41169    
V61      V      0.523210000000     0.508670000000     0.758240000000     1.39144    
V62      V      0.525630000000     0.022790000000     0.816880000000     1.39473    
V63      V      0.980810000000     0.267600000000     0.784480000000     1.38764    
V64      V      0.535040000000     0.266870000000     0.762970000000     1.39749    
V65      V      0.771560000000     0.485240000000     0.792600000000     1.39216    
V66      V      0.780580000000     0.043410000000     0.792850000000     1.39637    
V67      V      0.780020000000     0.023790000000     0.526630000000     1.39493    
V68      V      0.725780000000     0.023310000000     0.048220000000     1.39913    
V69      V      0.495720000000     0.236460000000     0.523430000000     1.37336    
V70      V      0.504260000000     0.294640000000     0.021530000000     1.4025     
V71      V      0.752660000000     0.272220000000     0.996970000000     1.37341    
V72      V      0.748260000000     0.282260000000     0.556290000000     1.41173    
V73      V      0.523210000000     0.008670000000     0.258240000000     1.39103    
V74      V      0.525630000000     0.522790000000     0.316870000000     1.39478    
V75      V      0.980810000000     0.767600000000     0.284480000000     1.38762    
V76      V      0.535040000000     0.766870000000     0.262960000000     1.39788    
V77      V      0.771560000000     0.985250000000     0.292600000000     1.39217    
V78      V      0.780580000000     0.543410000000     0.292850000000     1.39687    
V79      V      0.780020000000     0.523790000000     0.026630000000     1.39515    
V80      V      0.725780000000     0.523310000000     0.548220000000     1.39938    
V81      V      0.495720000000     0.736460000000     0.023440000000     1.37338    
V82      V      0.504260000000     0.794640000000     0.521530000000     1.40248    
V83      V      0.752660000000     0.772220000000     0.496970000000     1.37327    
V84      V      0.748260000000     0.782260000000     0.056290000000     1.4117     
V85      V      0.523210000000     0.008670000000     0.758240000000     1.3912     
V86      V      0.525630000000     0.522790000000     0.816880000000     1.39493    
V87      V      0.980810000000     0.767600000000     0.784480000000     1.38762    
V88      V      0.535040000000     0.766870000000     0.762970000000     1.39755    
V89      V      0.771560000000     0.985250000000     0.792600000000     1.39217    
V90      V      0.780580000000     0.543410000000     0.792850000000     1.39687    
V91      V      0.780020000000     0.523790000000     0.526630000000     1.39515    
V92      V      0.725780000000     0.523310000000     0.048220000000     1.39935    
V93      V      0.495720000000     0.736460000000     0.523430000000     1.37341    
V94      V      0.504260000000     0.794640000000     0.021530000000     1.40246    
V95      V      0.752660000000     0.772220000000     0.996970000000     1.37335    
V96      V      0.748260000000     0.782260000000     0.556290000000     1.41174    


