data_structure

_audit_creation_method RASPA-1.0
_audit_creation_date 2023-5-22
_audit_author_name 'Poobodin Mano'

_cell_length_a    31.1503
_cell_length_b    31.2576
_cell_length_c    41.4969
_cell_angle_alpha 90
_cell_angle_beta  90
_cell_angle_gamma 90
_cell_volume      40404.9

_symmetry_cell_setting          triclinic
_symmetry_space_group_name_Hall 'P 1'
_symmetry_space_group_name_H-M  'P 1'
_symmetry_Int_Tables_number     1

_symmetry_equiv_pos_as_xyz 'x,y,z'

loop_
_atom_site_label
_atom_site_type_symbol
_atom_site_fract_x
_atom_site_fract_y
_atom_site_fract_z
_atom_site_charge
C1       C      0.512580000000     0.832540000000     0.064280000000     0.474641   
C2       C      0.525310000000     0.827770000000     0.442640000000     0.473984   
C3       C      0.439290000000     0.821520000000     0.497710000000     0.476594   
C4       C      0.599940000000     0.838600000000     0.508790000000     0.47577    
C5       C      0.523850000000     0.827250000000     0.311290000000     0.473862   
C6       C      0.487630000000     0.831480000000     0.192430000000     0.47437    
C7       C      0.425590000000     0.834170000000     0.264360000000     0.471882   
C8       C      0.584500000000     0.824830000000     0.239810000000     0.472704   
C9       C      0.844060000000     0.511430000000     0.445410000000     0.472849   
C10      C      0.834070000000     0.529800000000     0.066640000000     0.473755   
C11      C      0.829690000000     0.441100000000     0.013240000000     0.475048   
C12      C      0.847710000000     0.600890000000     0.999830000000     0.474802   
C13      C      0.836770000000     0.501560000000     0.193820000000     0.473638   
C14      C      0.846140000000     0.522360000000     0.314840000000     0.472771   
C15      C      0.853550000000     0.431950000000     0.261650000000     0.474104   
C16      C      0.830060000000     0.590890000000     0.246690000000     0.475006   
C17      C      0.499800000000     0.165080000000     0.465670000000     0.472756   
C18      C      0.496460000000     0.164720000000     0.087790000000     0.473043   
C19      C      0.417070000000     0.167250000000     0.025560000000     0.474477   
C20      C      0.579160000000     0.162530000000     0.028700000000     0.474323   
C21      C      0.532830000000     0.163500000000     0.336810000000     0.472353   
C22      C      0.534310000000     0.162940000000     0.214660000000     0.473131   
C23      C      0.614530000000     0.158060000000     0.276480000000     0.473888   
C24      C      0.452600000000     0.168610000000     0.274670000000     0.473457   
C25      C      0.167460000000     0.493650000000     0.079460000000     0.472044   
C26      C      0.172790000000     0.493360000000     0.457240000000     0.473435   
C27      C      0.172780000000     0.412460000000     0.517520000000     0.474043   
C28      C      0.167490000000     0.574210000000     0.518050000000     0.4752     
C29      C      0.165940000000     0.531290000000     0.207280000000     0.471419   
C30      C      0.171050000000     0.529320000000     0.329430000000     0.472438   
C31      C      0.163930000000     0.611250000000     0.270090000000     0.47284    
C32      C      0.173210000000     0.449720000000     0.267530000000     0.473187   
C33      C      0.865720000000     0.771710000000     0.489770000000     0.474297   
C34      C      0.840760000000     0.930100000000     0.506770000000     0.472498   
C35      C      0.773370000000     0.839150000000     0.997980000000     0.473851   
C36      C      0.934160000000     0.861940000000     0.998880000000     0.474162   
C37      C      0.917650000000     0.843830000000     0.264440000000     0.472025   
C38      C      0.755310000000     0.843730000000     0.255500000000     0.472906   
C39      C      0.835890000000     0.925100000000     0.263280000000     0.473559   
C40      C      0.836760000000     0.763260000000     0.256880000000     0.473965   
C41      C      0.840070000000     0.104630000000     0.016320000000     0.472739   
C42      C      0.828810000000     0.266110000000     0.015250000000     0.473438   
C43      C      0.914220000000     0.191640000000     0.514460000000     0.475102   
C44      C      0.752380000000     0.180200000000     0.517940000000     0.474127   
C45      C      0.868130000000     0.095570000000     0.265550000000     0.473654   
C46      C      0.861950000000     0.257360000000     0.260160000000     0.473612   
C47      C      0.946980000000     0.178890000000     0.265600000000     0.472643   
C48      C      0.784560000000     0.174740000000     0.260330000000     0.474847   
C49      C      0.161340000000     0.076390000000     0.506190000000     0.47398    
C50      C      0.166240000000     0.237510000000     0.516810000000     0.473357   
C51      C      0.083550000000     0.159050000000     0.012800000000     0.474697   
C52      C      0.245660000000     0.154070000000     0.009410000000     0.474822   
C53      C      0.200330000000     0.120480000000     0.272790000000     0.472633   
C54      C      0.203080000000     0.282050000000     0.282790000000     0.473942   
C55      C      0.120290000000     0.204130000000     0.272790000000     0.473148   
C56      C      0.282310000000     0.199260000000     0.283150000000     0.474013   
C57      C      0.101870000000     0.823980000000     0.498820000000     0.474237   
C58      C      0.264330000000     0.823400000000     0.499140000000     0.47552    
C59      C      0.184120000000     0.904130000000     0.000960000000     0.474717   
C60      C      0.183990000000     0.742350000000     0.997020000000     0.475863   
C61      C      0.091530000000     0.868410000000     0.267470000000     0.47084    
C62      C      0.254000000000     0.865030000000     0.261110000000     0.471058   
C63      C      0.173570000000     0.947900000000     0.265000000000     0.471571   
C64      C      0.171990000000     0.785870000000     0.263910000000     0.47192    
C65      C      0.205990000000     0.054710000000     0.239200000000    -0.00875194 
C66      C      0.200630000000     0.049660000000     0.299450000000    -0.00774805 
C67      C      0.173830000000     0.017620000000     0.235940000000    -0.0093316  
C68      C      0.166500000000     0.015070000000     0.296120000000    -0.00848937 
C69      C      0.151980000000     0.005900000000     0.032520000000    -0.00839269 
C70      C      0.158480000000     0.010770000000     0.472390000000    -0.00885107 
C71      C      0.185880000000     0.970750000000     0.033190000000    -0.00766305 
C72      C      0.190990000000     0.973960000000     0.472800000000    -0.00822329 
C73      C      0.013470000000     0.177350000000     0.298360000000    -0.00838843 
C74      C      0.017640000000     0.176370000000     0.237850000000    -0.00896428 
C75      C      0.049260000000     0.210680000000     0.299290000000    -0.00797816 
C76      C      0.054470000000     0.208910000000     0.239050000000    -0.00856672 
C77      C      0.014170000000     0.158710000000     0.483470000000    -0.00839466 
C78      C      0.015720000000     0.160730000000     0.044070000000    -0.0085051  
C79      C      0.982010000000     0.195640000000     0.483240000000    -0.0078898  
C80      C      0.983540000000     0.197610000000     0.043530000000    -0.00739883 
C81      C      0.023440000000     0.868630000000     0.299230000000    -0.00937223 
C82      C      0.022260000000     0.877100000000     0.239150000000    -0.00799219 
C83      C      0.984790000000     0.837880000000     0.296980000000    -0.00932222 
C84      C      0.987800000000     0.842870000000     0.236620000000    -0.00770033 
C85      C      0.836830000000     0.994680000000     0.234870000000    -0.00732981 
C86      C      0.832610000000     0.992580000000     0.295260000000    -0.00882684 
C87      C      0.873800000000     0.026370000000     0.236890000000    -0.00796762 
C88      C      0.867240000000     0.027650000000     0.297090000000    -0.00920909 
C89      C      0.033290000000     0.827970000000     0.468430000000    -0.00833118 
C90      C      0.033050000000     0.826450000000     0.029020000000    -0.00845357 
C91      C      0.003100000000     0.866620000000     0.469020000000    -0.00840684 
C92      C      0.002830000000     0.865080000000     0.029230000000    -0.00836169 
C93      C      0.854640000000     0.039080000000     0.485130000000    -0.00762152 
C94      C      0.848910000000     0.035390000000     0.045520000000    -0.00944005 
C95      C      0.825590000000     0.000400000000     0.482230000000    -0.00736109 
C96      C      0.824560000000     0.992540000000     0.042320000000    -0.00908483 
C97      C      0.147780000000     0.718080000000     0.239750000000    -0.00726407 
C98      C      0.205790000000     0.719260000000     0.282260000000    -0.00793496 
C99      C      0.127760000000     0.678810000000     0.255930000000    -0.00751948 
C100     C      0.188220000000     0.677520000000     0.296210000000    -0.00747514 
C101     C      0.174760000000     0.348200000000     0.307180000000    -0.00817181 
C102     C      0.232510000000     0.351190000000     0.264810000000    -0.00567627 
C103     C      0.147560000000     0.379840000000     0.287490000000    -0.00801693 
C104     C      0.206700000000     0.384310000000     0.246020000000    -0.00710154 
C105     C      0.157840000000     0.673320000000     0.476190000000    -0.00774133 
C106     C      0.218540000000     0.676630000000     0.016330000000    -0.00533782 
C107     C      0.134530000000     0.640820000000     0.497830000000    -0.00782012 
C108     C      0.196420000000     0.642990000000     0.037060000000    -0.00655007 
C109     C      0.147300000000     0.347550000000     0.490570000000    -0.00741698 
C110     C      0.208250000000     0.344130000000     0.030530000000    -0.00716869 
C111     C      0.130410000000     0.304830000000     0.503030000000    -0.00745028 
C112     C      0.189080000000     0.303170000000     0.044850000000    -0.00730906 
C113     C      0.212870000000     0.530320000000     0.380550000000    -0.00883481 
C114     C      0.132330000000     0.527990000000     0.381540000000    -0.00816116 
C115     C      0.214400000000     0.494660000000     0.405990000000    -0.00880594 
C116     C      0.134000000000     0.490690000000     0.405170000000    -0.00788252 
C117     C      0.124240000000     0.528730000000     0.156060000000    -0.00880635 
C118     C      0.204590000000     0.533530000000     0.155080000000    -0.00837126 
C119     C      0.125840000000     0.492840000000     0.130760000000    -0.00912359 
C120     C      0.206310000000     0.496000000000     0.131580000000    -0.00816609 
C121     C      0.352890000000     0.226480000000     0.266060000000    -0.00633508 
C122     C      0.347160000000     0.170580000000     0.309610000000    -0.0078549  
C123     C      0.388650000000     0.200930000000     0.249960000000    -0.00703828 
C124     C      0.381280000000     0.143480000000     0.292350000000    -0.00769857 
C125     C      0.717460000000     0.207050000000     0.279410000000    -0.00552059 
C126     C      0.716170000000     0.148420000000     0.237650000000    -0.00772008 
C127     C      0.682940000000     0.183980000000     0.298640000000    -0.00645853 
C128     C      0.681850000000     0.124640000000     0.257470000000    -0.00831238 
C129     C      0.312030000000     0.118740000000     0.527420000000    -0.00656057 
C130     C      0.314660000000     0.178920000000     0.487070000000    -0.00795248 
C131     C      0.348640000000     0.139190000000     0.046280000000    -0.00693431 
C132     C      0.349790000000     0.200880000000     0.007030000000    -0.00787012 
C133     C      0.645490000000     0.187760000000     0.054600000000    -0.00684699 
C134     C      0.647760000000     0.130010000000     0.012320000000    -0.00766937 
C135     C      0.684980000000     0.208850000000     0.539630000000    -0.00781679 
C136     C      0.684520000000     0.153380000000     0.495290000000    -0.00713588 
C137     C      0.496980000000     0.125190000000     0.413990000000    -0.00833737 
C138     C      0.500930000000     0.205400000000     0.414110000000    -0.00850855 
C139     C      0.532440000000     0.123540000000     0.388510000000    -0.00862053 
C140     C      0.536050000000     0.203730000000     0.388360000000    -0.00833729 
C141     C      0.535950000000     0.202920000000     0.162980000000    -0.00849497 
C142     C      0.532050000000     0.122740000000     0.163070000000    -0.00816546 
C143     C      0.498080000000     0.204670000000     0.139490000000    -0.00847353 
C144     C      0.494460000000     0.124510000000     0.139390000000    -0.00823258 
C145     C      0.895730000000     0.367380000000     0.249260000000    -0.00728578 
C146     C      0.835460000000     0.365010000000     0.289770000000    -0.00748745 
C147     C      0.879310000000     0.325870000000     0.234060000000    -0.00691384 
C148     C      0.822100000000     0.321090000000     0.276990000000    -0.00736131 
C149     C      0.868320000000     0.698090000000     0.233890000000    -0.00780412 
C150     C      0.812810000000     0.693990000000     0.278400000000    -0.00711692 
C151     C      0.849080000000     0.657870000000     0.218690000000    -0.0063026  
C152     C      0.791130000000     0.656740000000     0.260850000000    -0.00755346 
C153     C      0.864060000000     0.332170000000     0.032250000000    -0.0083294  
C154     C      0.806170000000     0.333110000000     0.489490000000    -0.00713938 
C155     C      0.849640000000     0.376460000000     0.043490000000    -0.00703591 
C156     C      0.788930000000     0.374900000000     0.503540000000    -0.00693653 
C157     C      0.822280000000     0.669710000000     0.478370000000    -0.00656737 
C158     C      0.881520000000     0.666280000000     0.020210000000    -0.0078412  
C159     C      0.846770000000     0.705450000000     0.461070000000    -0.00836351 
C160     C      0.903040000000     0.704810000000     0.004360000000    -0.00641278 
C161     C      0.887500000000     0.502420000000     0.395310000000    -0.0093029  
C162     C      0.806940000000     0.501870000000     0.393270000000    -0.00751098 
C163     C      0.888340000000     0.531950000000     0.365490000000    -0.00931078 
C164     C      0.807910000000     0.534540000000     0.366200000000    -0.00728685 
C165     C      0.873740000000     0.498130000000     0.141210000000    -0.00714659 
C166     C      0.793340000000     0.496170000000     0.143390000000    -0.00945792 
C167     C      0.871810000000     0.536460000000     0.118750000000    -0.00685766 
C168     C      0.791500000000     0.531780000000     0.117600000000    -0.00952181 
C169     C      0.352880000000     0.807800000000     0.252340000000    -0.00757993 
C170     C      0.363950000000     0.866910000000     0.292770000000    -0.00756372 
C171     C      0.318290000000     0.834460000000     0.235520000000    -0.00783743 
C172     C      0.325110000000     0.890790000000     0.278830000000    -0.0079654  
C173     C      0.686430000000     0.814520000000     0.274080000000    -0.00679741 
C174     C      0.688970000000     0.872910000000     0.231860000000    -0.00757672 
C175     C      0.653110000000     0.790690000000     0.253800000000    -0.00835074 
C176     C      0.651180000000     0.851710000000     0.214340000000    -0.00707119 
C177     C      0.330310000000     0.857100000000     0.979690000000    -0.00778408 
C178     C      0.332090000000     0.802210000000     0.024550000000    -0.00650261 
C179     C      0.373960000000     0.841030000000     0.467970000000    -0.00688789 
C180     C      0.372620000000     0.782840000000     0.509920000000    -0.00689625 
C181     C      0.703020000000     0.859500000000     0.475990000000    -0.00740033 
C182     C      0.709430000000     0.799630000000     0.016580000000    -0.00811096 
C183     C      0.665600000000     0.878260000000     0.495120000000    -0.00724767 
C184     C      0.668420000000     0.815410000000     0.033100000000    -0.00687187 
C185     C      0.519280000000     0.785870000000     0.392310000000    -0.00899085 
C186     C      0.521640000000     0.866960000000     0.391280000000    -0.00759612 
C187     C      0.543330000000     0.785330000000     0.360100000000    -0.00785573 
C188     C      0.548090000000     0.864930000000     0.360490000000    -0.0079832  
C189     C      0.476140000000     0.792630000000     0.141180000000    -0.00750698 
C190     C      0.473520000000     0.872300000000     0.142000000000    -0.00840016 
C191     C      0.511800000000     0.793570000000     0.116090000000    -0.00800314 
C192     C      0.507240000000     0.874330000000     0.115070000000    -0.00877872 
C193     C      0.512580000000     0.832540000000     0.564280000000     0.474658   
C194     C      0.525310000000     0.827770000000     0.942640000000     0.473955   
C195     C      0.439290000000     0.821520000000     0.997710000000     0.476723   
C196     C      0.599940000000     0.838600000000     0.008790000000     0.475738   
C197     C      0.523850000000     0.827250000000     0.811290000000     0.473859   
C198     C      0.487630000000     0.831480000000     0.692430000000     0.474373   
C199     C      0.425590000000     0.834170000000     0.764370000000     0.471845   
C200     C      0.584500000000     0.824830000000     0.739810000000     0.472702   
C201     C      0.844060000000     0.511430000000     0.945420000000     0.47278    
C202     C      0.834070000000     0.529800000000     0.566640000000     0.473767   
C203     C      0.829690000000     0.441100000000     0.513250000000     0.475077   
C204     C      0.847710000000     0.600890000000     0.499830000000     0.474709   
C205     C      0.836770000000     0.501560000000     0.693820000000     0.47365    
C206     C      0.846140000000     0.522360000000     0.814840000000     0.472746   
C207     C      0.853550000000     0.431950000000     0.761650000000     0.474115   
C208     C      0.830060000000     0.590890000000     0.746690000000     0.475019   
C209     C      0.499800000000     0.165080000000     0.965670000000     0.472735   
C210     C      0.496460000000     0.164720000000     0.587790000000     0.47318    
C211     C      0.417070000000     0.167250000000     0.525560000000     0.474513   
C212     C      0.579160000000     0.162530000000     0.528700000000     0.474359   
C213     C      0.532830000000     0.163500000000     0.836800000000     0.472395   
C214     C      0.534310000000     0.162940000000     0.714660000000     0.47314    
C215     C      0.614530000000     0.158060000000     0.776480000000     0.473939   
C216     C      0.452600000000     0.168610000000     0.774670000000     0.473466   
C217     C      0.167460000000     0.493650000000     0.579460000000     0.472054   
C218     C      0.172790000000     0.493360000000     0.957240000000     0.473289   
C219     C      0.172780000000     0.412460000000     0.017520000000     0.474024   
C220     C      0.167490000000     0.574210000000     0.018050000000     0.47518    
C221     C      0.165940000000     0.531290000000     0.707280000000     0.471415   
C222     C      0.171050000000     0.529320000000     0.829430000000     0.472566   
C223     C      0.163930000000     0.611250000000     0.770090000000     0.47284    
C224     C      0.173210000000     0.449720000000     0.767530000000     0.473185   
C225     C      0.865720000000     0.771710000000     0.989770000000     0.474464   
C226     C      0.840760000000     0.930100000000     0.006770000000     0.472345   
C227     C      0.773370000000     0.839150000000     0.497980000000     0.473701   
C228     C      0.934160000000     0.861940000000     0.498880000000     0.474003   
C229     C      0.917650000000     0.843830000000     0.764440000000     0.47203    
C230     C      0.755310000000     0.843730000000     0.755500000000     0.473223   
C231     C      0.835890000000     0.925100000000     0.763280000000     0.473563   
C232     C      0.836760000000     0.763260000000     0.756880000000     0.473971   
C233     C      0.840070000000     0.104630000000     0.516320000000     0.472893   
C234     C      0.828810000000     0.266110000000     0.515250000000     0.473584   
C235     C      0.914220000000     0.191640000000     0.014450000000     0.474942   
C236     C      0.752380000000     0.180200000000     0.017950000000     0.473976   
C237     C      0.868130000000     0.095570000000     0.765550000000     0.473649   
C238     C      0.861950000000     0.257360000000     0.760160000000     0.473613   
C239     C      0.946980000000     0.178890000000     0.765600000000     0.472639   
C240     C      0.784560000000     0.174740000000     0.760330000000     0.474847   
C241     C      0.161340000000     0.076390000000     0.006190000000     0.473865   
C242     C      0.166240000000     0.237510000000     0.016810000000     0.473231   
C243     C      0.083550000000     0.159050000000     0.512800000000     0.474809   
C244     C      0.245660000000     0.154070000000     0.509410000000     0.474936   
C245     C      0.200330000000     0.120480000000     0.772790000000     0.472626   
C246     C      0.203080000000     0.282050000000     0.782790000000     0.473934   
C247     C      0.120290000000     0.204130000000     0.772790000000     0.472844   
C248     C      0.282310000000     0.199260000000     0.783150000000     0.474007   
C249     C      0.101870000000     0.823980000000     0.998820000000     0.47444    
C250     C      0.264330000000     0.823400000000     0.999140000000     0.475727   
C251     C      0.184120000000     0.904130000000     0.500960000000     0.474513   
C252     C      0.183990000000     0.742350000000     0.497020000000     0.475659   
C253     C      0.091530000000     0.868410000000     0.767460000000     0.471161   
C254     C      0.254000000000     0.865030000000     0.761110000000     0.471063   
C255     C      0.173570000000     0.947900000000     0.764990000000     0.471574   
C256     C      0.171990000000     0.785870000000     0.763920000000     0.471923   
C257     C      0.205990000000     0.054710000000     0.739200000000    -0.00876228 
C258     C      0.200630000000     0.049660000000     0.799450000000    -0.00775428 
C259     C      0.173830000000     0.017620000000     0.735940000000    -0.00930446 
C260     C      0.166500000000     0.015070000000     0.796120000000    -0.00847594 
C261     C      0.151980000000     0.005900000000     0.532520000000    -0.00838019 
C262     C      0.158480000000     0.010770000000     0.972390000000    -0.00877942 
C263     C      0.185880000000     0.970750000000     0.533190000000    -0.00766385 
C264     C      0.190990000000     0.973960000000     0.972800000000    -0.00814327 
C265     C      0.013470000000     0.177350000000     0.798370000000    -0.00850638 
C266     C      0.017640000000     0.176370000000     0.737850000000    -0.00896291 
C267     C      0.049260000000     0.210680000000     0.799290000000    -0.00793912 
C268     C      0.054470000000     0.208910000000     0.739050000000    -0.00857893 
C269     C      0.014170000000     0.158710000000     0.983460000000    -0.00842007 
C270     C      0.015720000000     0.160730000000     0.544070000000    -0.00849058 
C271     C      0.982010000000     0.195640000000     0.983240000000    -0.00781982 
C272     C      0.983540000000     0.197610000000     0.543530000000    -0.00740281 
C273     C      0.023440000000     0.868630000000     0.799230000000    -0.00933657 
C274     C      0.022260000000     0.877100000000     0.739140000000    -0.00810315 
C275     C      0.984790000000     0.837880000000     0.796980000000    -0.00933094 
C276     C      0.987800000000     0.842870000000     0.736620000000    -0.00765282 
C277     C      0.836830000000     0.994680000000     0.734870000000    -0.00730729 
C278     C      0.832610000000     0.992580000000     0.795260000000    -0.00884959 
C279     C      0.873800000000     0.026370000000     0.736890000000    -0.00803815 
C280     C      0.867240000000     0.027650000000     0.797090000000    -0.00914168 
C281     C      0.033290000000     0.827970000000     0.968420000000    -0.00843524 
C282     C      0.033050000000     0.826450000000     0.529020000000    -0.00838111 
C283     C      0.003100000000     0.866620000000     0.969020000000    -0.00834764 
C284     C      0.002830000000     0.865080000000     0.529230000000    -0.00829342 
C285     C      0.854640000000     0.039080000000     0.985130000000    -0.00754922 
C286     C      0.848910000000     0.035390000000     0.545520000000    -0.00942731 
C287     C      0.825590000000     0.000400000000     0.982230000000    -0.00728953 
C288     C      0.824560000000     0.992540000000     0.542320000000    -0.00907227 
C289     C      0.147780000000     0.718080000000     0.739750000000    -0.00725555 
C290     C      0.205790000000     0.719260000000     0.782260000000    -0.00794394 
C291     C      0.127760000000     0.678810000000     0.755930000000    -0.00752377 
C292     C      0.188220000000     0.677520000000     0.796210000000    -0.0074734  
C293     C      0.174760000000     0.348200000000     0.807180000000    -0.00816998 
C294     C      0.232510000000     0.351190000000     0.764800000000    -0.00568712 
C295     C      0.147560000000     0.379840000000     0.787490000000    -0.00801582 
C296     C      0.206700000000     0.384310000000     0.746010000000    -0.00718593 
C297     C      0.157840000000     0.673320000000     0.976190000000    -0.00776294 
C298     C      0.218540000000     0.676630000000     0.516330000000    -0.00525646 
C299     C      0.134530000000     0.640820000000     0.997820000000    -0.00762191 
C300     C      0.196420000000     0.642990000000     0.537060000000    -0.00654291 
C301     C      0.147300000000     0.347550000000     0.990570000000    -0.00714077 
C302     C      0.208250000000     0.344130000000     0.530530000000    -0.00711785 
C303     C      0.130410000000     0.304830000000     0.003020000000    -0.00783952 
C304     C      0.189080000000     0.303170000000     0.544860000000    -0.0074462  
C305     C      0.212870000000     0.530320000000     0.880560000000    -0.00886237 
C306     C      0.132330000000     0.527990000000     0.881550000000    -0.00819738 
C307     C      0.214400000000     0.494660000000     0.905990000000    -0.00879282 
C308     C      0.134000000000     0.490690000000     0.905170000000    -0.00786459 
C309     C      0.124240000000     0.528730000000     0.656060000000    -0.0088083  
C310     C      0.204590000000     0.533530000000     0.655080000000    -0.00837304 
C311     C      0.125840000000     0.492840000000     0.630760000000    -0.00912357 
C312     C      0.206310000000     0.496000000000     0.631580000000    -0.00816618 
C313     C      0.352890000000     0.226480000000     0.766060000000    -0.00633476 
C314     C      0.347160000000     0.170580000000     0.809610000000    -0.00783557 
C315     C      0.388650000000     0.200930000000     0.749960000000    -0.00703978 
C316     C      0.381280000000     0.143480000000     0.792360000000    -0.00774015 
C317     C      0.717460000000     0.207050000000     0.779410000000    -0.00552196 
C318     C      0.716170000000     0.148420000000     0.737650000000    -0.00770296 
C319     C      0.682940000000     0.183980000000     0.798640000000    -0.00645611 
C320     C      0.681850000000     0.124640000000     0.757470000000    -0.00831574 
C321     C      0.312030000000     0.118740000000     0.027420000000    -0.00660135 
C322     C      0.314660000000     0.178920000000     0.987060000000    -0.00776065 
C323     C      0.348640000000     0.139190000000     0.546280000000    -0.00692983 
C324     C      0.349790000000     0.200880000000     0.507040000000    -0.00755375 
C325     C      0.645490000000     0.187760000000     0.554600000000    -0.00683115 
C326     C      0.647760000000     0.130010000000     0.512320000000    -0.00736997 
C327     C      0.684980000000     0.208850000000     0.039630000000    -0.00781903 
C328     C      0.684520000000     0.153380000000     0.995290000000    -0.00687009 
C329     C      0.496980000000     0.125190000000     0.913980000000    -0.00836702 
C330     C      0.500930000000     0.205400000000     0.914100000000    -0.00853273 
C331     C      0.532440000000     0.123540000000     0.888510000000    -0.00862353 
C332     C      0.536050000000     0.203730000000     0.888370000000    -0.00836504 
C333     C      0.535950000000     0.202920000000     0.662980000000    -0.00849548 
C334     C      0.532050000000     0.122740000000     0.663070000000    -0.00816493 
C335     C      0.498080000000     0.204670000000     0.639490000000    -0.00847393 
C336     C      0.494460000000     0.124510000000     0.639390000000    -0.00823296 
C337     C      0.895730000000     0.367380000000     0.749260000000    -0.00728708 
C338     C      0.835460000000     0.365010000000     0.789770000000    -0.00749736 
C339     C      0.879310000000     0.325870000000     0.734060000000    -0.0069135  
C340     C      0.822100000000     0.321090000000     0.776990000000    -0.00733449 
C341     C      0.868320000000     0.698090000000     0.733890000000    -0.00781439 
C342     C      0.812810000000     0.693990000000     0.778400000000    -0.00710338 
C343     C      0.849080000000     0.657870000000     0.718690000000    -0.00627    
C344     C      0.791130000000     0.656740000000     0.760850000000    -0.00754    
C345     C      0.864060000000     0.332170000000     0.532250000000    -0.00833117 
C346     C      0.806170000000     0.333110000000     0.989490000000    -0.00688755 
C347     C      0.849640000000     0.376460000000     0.543490000000    -0.00702538 
C348     C      0.788930000000     0.374900000000     0.003540000000    -0.00722524 
C349     C      0.822280000000     0.669710000000     0.978360000000    -0.00660932 
C350     C      0.881520000000     0.666280000000     0.520210000000    -0.00779108 
C351     C      0.846770000000     0.705450000000     0.961070000000    -0.00835624 
C352     C      0.903040000000     0.704810000000     0.504360000000    -0.00624264 
C353     C      0.887500000000     0.502420000000     0.895310000000    -0.009327   
C354     C      0.806940000000     0.501870000000     0.893270000000    -0.00752672 
C355     C      0.888340000000     0.531950000000     0.865480000000    -0.00928178 
C356     C      0.807910000000     0.534540000000     0.866200000000    -0.00728709 
C357     C      0.873740000000     0.498130000000     0.641210000000    -0.00715437 
C358     C      0.793340000000     0.496170000000     0.643390000000    -0.00945751 
C359     C      0.871810000000     0.536460000000     0.618750000000    -0.00685633 
C360     C      0.791500000000     0.531780000000     0.617600000000    -0.00952252 
C361     C      0.352880000000     0.807800000000     0.752340000000    -0.00761335 
C362     C      0.363950000000     0.866910000000     0.792770000000    -0.00752453 
C363     C      0.318290000000     0.834460000000     0.735520000000    -0.00782848 
C364     C      0.325110000000     0.890790000000     0.778830000000    -0.00798044 
C365     C      0.686430000000     0.814520000000     0.774080000000    -0.00678214 
C366     C      0.688970000000     0.872910000000     0.731860000000    -0.00755452 
C367     C      0.653110000000     0.790690000000     0.753800000000    -0.00835741 
C368     C      0.651180000000     0.851710000000     0.714340000000    -0.00710975 
C369     C      0.330310000000     0.857100000000     0.479690000000    -0.0077986  
C370     C      0.332090000000     0.802210000000     0.524550000000    -0.00646362 
C371     C      0.373960000000     0.841030000000     0.967970000000    -0.00688414 
C372     C      0.372620000000     0.782840000000     0.009920000000    -0.00709509 
C373     C      0.703020000000     0.859500000000     0.975990000000    -0.00743778 
C374     C      0.709430000000     0.799630000000     0.516580000000    -0.00784439 
C375     C      0.665600000000     0.878260000000     0.995120000000    -0.00705843 
C376     C      0.668420000000     0.815410000000     0.533100000000    -0.00697784 
C377     C      0.519280000000     0.785870000000     0.892310000000    -0.00899381 
C378     C      0.521640000000     0.866960000000     0.891280000000    -0.00760746 
C379     C      0.543330000000     0.785330000000     0.860100000000    -0.00785519 
C380     C      0.548090000000     0.864930000000     0.860490000000    -0.00798092 
C381     C      0.476140000000     0.792630000000     0.641180000000    -0.00751511 
C382     C      0.473520000000     0.872300000000     0.642000000000    -0.00840115 
C383     C      0.511800000000     0.793570000000     0.616080000000    -0.00798804 
C384     C      0.507240000000     0.874330000000     0.615070000000    -0.00877738 
H1       H      0.232450000000     0.033850000000     0.301900000000     0.0346016  
H2       H      0.238960000000     0.041170000000     0.237910000000     0.0344621  
H3       H      0.182350000000     0.998340000000     0.214370000000     0.0379934  
H4       H      0.194510000000     0.067890000000     0.321970000000     0.0380778  
H5       H      0.167790000000     0.994080000000     0.317710000000     0.0389322  
H6       H      0.134460000000     0.030770000000     0.295800000000     0.0356099  
H7       H      0.201910000000     0.076680000000     0.218360000000     0.0375106  
H8       H      0.141420000000     0.031500000000     0.231830000000     0.0344018  
H9       H      0.126080000000     0.997040000000     0.967930000000     0.034823   
H10      H      0.119820000000     0.990540000000     0.031210000000     0.0351397  
H11      H      0.179500000000     0.949490000000     0.054120000000     0.0375739  
H12      H      0.166180000000     0.032550000000     0.452030000000     0.0379627  
H13      H      0.187370000000     0.955020000000     0.450310000000     0.037585   
H14      H      0.223780000000     0.988030000000     0.472740000000     0.0339394  
H15      H      0.153580000000     0.024110000000     0.055480000000     0.0387644  
H16      H      0.217830000000     0.985870000000     0.536850000000     0.0347363  
H17      H      0.031820000000     0.143770000000     0.236450000000     0.0349923  
H18      H      0.028180000000     0.145160000000     0.301210000000     0.0354987  
H19      H      0.067410000000     0.207060000000     0.322170000000     0.0379501  
H20      H      0.998890000000     0.181740000000     0.215430000000     0.0383967  
H21      H      0.076480000000     0.202880000000     0.218460000000     0.0376319  
H22      H      0.040630000000     0.241460000000     0.236010000000     0.0345513  
H23      H      0.991790000000     0.182730000000     0.319240000000     0.0383075  
H24      H      0.034220000000     0.242950000000     0.299450000000     0.0343974  
H25      H      0.997580000000     0.130290000000     0.046720000000     0.0358316  
H26      H      0.995880000000     0.128170000000     0.482560000000     0.0353262  
H27      H      0.961030000000     0.192740000000     0.461690000000     0.037378   
H28      H      0.036860000000     0.164270000000     0.065470000000     0.0383223  
H29      H      0.963720000000     0.196570000000     0.065770000000     0.037723   
H30      H      0.001870000000     0.228150000000     0.043790000000     0.0336342  
H31      H      0.034160000000     0.160530000000     0.461330000000     0.0386304  
H32      H      0.000210000000     0.226140000000     0.481230000000     0.0339889  
H33      H      0.006290000000     0.908880000000     0.240570000000     0.0357316  
H34      H      0.010920000000     0.901220000000     0.304440000000     0.034272   
H35      H      0.963570000000     0.843080000000     0.318150000000     0.0378057  
H36      H      0.041860000000     0.876570000000     0.216780000000     0.0386218  
H37      H      0.968830000000     0.848650000000     0.214370000000     0.0381681  
H38      H      0.003760000000     0.811210000000     0.234100000000     0.0347578  
H39      H      0.043980000000     0.858930000000     0.319870000000     0.0380357  
H40      H      0.997200000000     0.804580000000     0.298420000000     0.0346301  
H41      H      0.800650000000     0.008340000000     0.296510000000     0.0342378  
H42      H      0.806350000000     0.012990000000     0.232700000000     0.0346425  
H43      H      0.874240000000     0.046090000000     0.214610000000     0.0386148  
H44      H      0.835660000000     0.971330000000     0.316610000000     0.0373395  
H45      H      0.860580000000     0.048540000000     0.318170000000     0.0378551  
H46      H      0.898730000000     0.011830000000     0.301250000000     0.0344669  
H47      H      0.840550000000     0.975230000000     0.212630000000     0.038498   
H48      H      0.904400000000     0.008060000000     0.237820000000     0.0355983  
H49      H      0.013210000000     0.796920000000     0.030350000000     0.0347385  
H50      H      0.013410000000     0.798560000000     0.466210000000     0.0353349  
H51      H      0.982770000000     0.866350000000     0.447020000000     0.0385172  
H52      H      0.053650000000     0.827550000000     0.050860000000     0.037711   
H53      H      0.982320000000     0.863870000000     0.051120000000     0.038065   
H54      H      0.022740000000     0.894550000000     0.030710000000     0.0345785  
H55      H      0.054020000000     0.829980000000     0.446690000000     0.0387847  
H56      H      0.023000000000     0.896150000000     0.468460000000     0.0351092  
H57      H      0.883310000000     0.028090000000     0.050070000000     0.0341779  
H58      H      0.888580000000     0.028000000000     0.484980000000     0.0364052  
H59      H      0.832250000000     0.984180000000     0.458940000000     0.0385597  
H60      H      0.836470000000     0.052920000000     0.066880000000     0.0375829  
H61      H      0.834180000000     0.971090000000     0.062430000000     0.037475   
H62      H      0.789670000000     0.999190000000     0.044930000000     0.0342253  
H63      H      0.849850000000     0.059590000000     0.463570000000     0.0387374  
H64      H      0.791700000000     0.011600000000     0.481670000000     0.0346012  
H65      H      0.232850000000     0.711160000000     0.265880000000     0.0338849  
H66      H      0.169320000000     0.707180000000     0.220020000000     0.0368621  
H67      H      0.111290000000     0.659050000000     0.237360000000     0.0343743  
H68      H      0.219180000000     0.739190000000     0.302070000000     0.0364462  
H69      H      0.215280000000     0.657550000000     0.305150000000     0.036413   
H70      H      0.167910000000     0.685680000000     0.317370000000     0.0343811  
H71      H      0.121810000000     0.737980000000     0.229030000000     0.0345101  
H72      H      0.103490000000     0.689740000000     0.273780000000     0.0371324  
H73      H      0.255540000000     0.368640000000     0.280510000000     0.034427   
H74      H      0.193920000000     0.366570000000     0.325060000000     0.0365775  
H75      H      0.127950000000     0.399630000000     0.304230000000     0.035179   
H76      H      0.251540000000     0.331160000000     0.247850000000     0.034105   
H77      H      0.228910000000     0.406960000000     0.233790000000     0.0357302  
H78      H      0.188420000000     0.367200000000     0.226950000000     0.0362017  
H79      H      0.153170000000     0.325890000000     0.320370000000     0.0345433  
H80      H      0.125480000000     0.361320000000     0.271710000000     0.0369853  
H81      H      0.241790000000     0.659940000000     0.000340000000     0.0349068  
H82      H      0.176870000000     0.655490000000     0.457920000000     0.03687    
H83      H      0.115360000000     0.618750000000     0.482480000000     0.0349382  
H84      H      0.237040000000     0.699000000000     0.031910000000     0.0329656  
H85      H      0.220930000000     0.622730000000     0.049200000000     0.0352906  
H86      H      0.178020000000     0.659910000000     0.056170000000     0.0361867  
H87      H      0.133820000000     0.693580000000     0.463480000000     0.0331981  
H88      H      0.112230000000     0.658500000000     0.513970000000     0.0368291  
H89      H      0.232870000000     0.335190000000     0.012320000000     0.0368305  
H90      H      0.167320000000     0.341110000000     0.468910000000     0.0344971  
H91      H      0.116380000000     0.286340000000     0.482670000000     0.0360103  
H92      H      0.224220000000     0.362750000000     0.049990000000     0.0338171  
H93      H      0.215430000000     0.282760000000     0.054430000000     0.0336243  
H94      H      0.167510000000     0.311980000000     0.065160000000     0.0367239  
H95      H      0.119850000000     0.367780000000     0.482680000000     0.0360998  
H96      H      0.103970000000     0.311550000000     0.520300000000     0.0343309  
H97      H      0.129820000000     0.558210000000     0.395570000000     0.0352874  
H98      H      0.214880000000     0.561560000000     0.393290000000     0.0343603  
H99      H      0.242820000000     0.499650000000     0.421740000000     0.0381603  
H100     H      0.102920000000     0.524980000000     0.366570000000     0.0385555  
H101     H      0.104430000000     0.491030000000     0.420130000000     0.0384898  
H102     H      0.134080000000     0.460390000000     0.391100000000     0.0343225  
H103     H      0.241520000000     0.527620000000     0.364740000000     0.0385095  
H104     H      0.218710000000     0.463640000000     0.393270000000     0.034755   
H105     H      0.204340000000     0.563740000000     0.140910000000     0.0348651  
H106     H      0.119540000000     0.559560000000     0.143160000000     0.033915   
H107     H      0.097130000000     0.495260000000     0.114970000000     0.0377836  
H108     H      0.234140000000     0.533300000000     0.170070000000     0.0378702  
H109     H      0.235680000000     0.499020000000     0.116560000000     0.0382831  
H110     H      0.209150000000     0.465940000000     0.145770000000     0.0343334  
H111     H      0.095900000000     0.523730000000     0.171870000000     0.0377179  
H112     H      0.124120000000     0.461680000000     0.143630000000     0.0348756  
H113     H      0.363340000000     0.190700000000     0.328070000000     0.0368341  
H114     H      0.368080000000     0.250790000000     0.281960000000     0.0344106  
H115     H      0.412100000000     0.223220000000     0.238680000000     0.0354666  
H116     H      0.324000000000     0.149020000000     0.321990000000     0.0347979  
H117     H      0.399930000000     0.125050000000     0.310540000000     0.0343583  
H118     H      0.364800000000     0.120470000000     0.276090000000     0.0368271  
H119     H      0.334060000000     0.243940000000     0.247450000000     0.0348397  
H120     H      0.374080000000     0.181620000000     0.230300000000     0.0354181  
H121     H      0.699730000000     0.168240000000     0.219140000000     0.0364865  
H122     H      0.701380000000     0.230850000000     0.263570000000     0.0348919  
H123     H      0.662370000000     0.207740000000     0.311300000000     0.0353922  
H124     H      0.737080000000     0.124760000000     0.225190000000     0.0330892  
H125     H      0.660230000000     0.106840000000     0.240870000000     0.0349768  
H126     H      0.698250000000     0.101210000000     0.273450000000     0.0365485  
H127     H      0.738990000000     0.224930000000     0.296050000000     0.0332124  
H128     H      0.699120000000     0.164230000000     0.317330000000     0.0357057  
H129     H      0.330230000000     0.159120000000     0.468110000000     0.0364349  
H130     H      0.326150000000     0.094750000000     0.510700000000     0.0348111  
H131     H      0.368980000000     0.113790000000     0.057210000000     0.0363565  
H132     H      0.294540000000     0.203720000000     0.475140000000     0.0349594  
H133     H      0.371300000000     0.219140000000     0.490630000000     0.0352869  
H134     H      0.334330000000     0.223760000000     0.023970000000     0.0360597  
H135     H      0.290360000000     0.101320000000     0.044210000000     0.0359088  
H136     H      0.334380000000     0.158000000000     0.066350000000     0.0349214  
H137     H      0.661590000000     0.105800000000     0.028990000000     0.0369799  
H138     H      0.656600000000     0.166780000000     0.074570000000     0.034369   
H139     H      0.705490000000     0.222440000000     0.059040000000     0.0368322  
H140     H      0.627750000000     0.113220000000     0.494050000000     0.0345142  
H141     H      0.705340000000     0.129490000000     0.482990000000     0.0348199  
H142     H      0.670780000000     0.175090000000     0.476730000000     0.0373192  
H143     H      0.624390000000     0.212690000000     0.065340000000     0.0355924  
H144     H      0.673840000000     0.236030000000     0.524500000000     0.0344304  
H145     H      0.469500000000     0.209370000000     0.401750000000     0.0347162  
H146     H      0.465450000000     0.124420000000     0.401430000000     0.0345621  
H147     H      0.527540000000     0.094760000000     0.373220000000     0.0381163  
H148     H      0.506120000000     0.234030000000     0.429490000000     0.0383587  
H149     H      0.533640000000     0.232740000000     0.372990000000     0.0381888  
H150     H      0.567710000000     0.204670000000     0.400730000000     0.0343495  
H151     H      0.499230000000     0.096100000000     0.429290000000     0.037676   
H152     H      0.563780000000     0.119930000000     0.401060000000     0.0345082  
H153     H      0.562170000000     0.119200000000     0.148930000000     0.0348333  
H154     H      0.566180000000     0.203490000000     0.148720000000     0.034473   
H155     H      0.501330000000     0.233570000000     0.124100000000     0.0378801  
H156     H      0.528690000000     0.093910000000     0.178520000000     0.0379856  
H157     H      0.495040000000     0.095490000000     0.123940000000     0.0383267  
H158     H      0.464140000000     0.123850000000     0.153540000000     0.0346716  
H159     H      0.535370000000     0.231980000000     0.178390000000     0.0379277  
H160     H      0.468030000000     0.207980000000     0.153760000000     0.0341659  
H161     H      0.856340000000     0.359890000000     0.311160000000     0.0342336  
H162     H      0.920990000000     0.359390000000     0.267230000000     0.0372214  
H163     H      0.906830000000     0.307930000000     0.223550000000     0.0332743  
H164     H      0.806560000000     0.382740000000     0.298110000000     0.0355792  
H165     H      0.810900000000     0.300810000000     0.297360000000     0.0343797  
H166     H      0.794260000000     0.325720000000     0.260580000000     0.0336202  
H167     H      0.910310000000     0.387700000000     0.230140000000     0.034912   
H168     H      0.856530000000     0.333950000000     0.214340000000     0.0376121  
H169     H      0.835120000000     0.680890000000     0.296860000000     0.0381103  
H170     H      0.896430000000     0.688230000000     0.248640000000     0.0353229  
H171     H      0.875000000000     0.638220000000     0.207670000000     0.0346569  
H172     H      0.787860000000     0.713360000000     0.290880000000     0.0336968  
H173     H      0.774840000000     0.635840000000     0.278800000000     0.0343429  
H174     H      0.766570000000     0.669840000000     0.244090000000     0.0359878  
H175     H      0.880480000000     0.719600000000     0.214580000000     0.0357084  
H176     H      0.827280000000     0.668160000000     0.198940000000     0.0337515  
H177     H      0.828120000000     0.340640000000     0.469130000000     0.0379024  
H178     H      0.892030000000     0.336390000000     0.015900000000     0.0344854  
H179     H      0.878110000000     0.395390000000     0.051150000000     0.0356107  
H180     H      0.778880000000     0.313880000000     0.479990000000     0.0337117  
H181     H      0.773320000000     0.393690000000     0.484000000000     0.0345422  
H182     H      0.764410000000     0.367280000000     0.522150000000     0.0361922  
H183     H      0.875460000000     0.313460000000     0.053390000000     0.0368082  
H184     H      0.828920000000     0.372190000000     0.065080000000     0.0336181  
H185     H      0.862360000000     0.678060000000     0.041010000000     0.0353453  
H186     H      0.797840000000     0.684330000000     0.994500000000     0.0372239  
H187     H      0.823510000000     0.726360000000     0.448180000000     0.0352266  
H188     H      0.906580000000     0.644510000000     0.030020000000     0.0362863  
H189     H      0.918800000000     0.724960000000     0.023030000000     0.0350875  
H190     H      0.928610000000     0.692610000000     0.488070000000     0.0340449  
H191     H      0.805350000000     0.649690000000     0.460180000000     0.0336455  
H192     H      0.868780000000     0.690780000000     0.443100000000     0.0365003  
H193     H      0.805910000000     0.469350000000     0.382410000000     0.0350043  
H194     H      0.891290000000     0.468870000000     0.386870000000     0.0344014  
H195     H      0.916560000000     0.523650000000     0.350330000000     0.0372307  
H196     H      0.776980000000     0.506230000000     0.407420000000     0.0381316  
H197     H      0.778230000000     0.531350000000     0.351550000000     0.0379904  
H198     H      0.807730000000     0.567070000000     0.377090000000     0.0346109  
H199     H      0.915440000000     0.510110000000     0.410930000000     0.0378659  
H200     H      0.892490000000     0.565440000000     0.373980000000     0.0347707  
H201     H      0.790870000000     0.464830000000     0.130850000000     0.0343364  
H202     H      0.874920000000     0.468550000000     0.126320000000     0.0351248  
H203     H      0.901550000000     0.537720000000     0.104000000000     0.037968   
H204     H      0.765170000000     0.499270000000     0.159650000000     0.0380342  
H205     H      0.763350000000     0.526260000000     0.101680000000     0.0376573  
H206     H      0.786700000000     0.562840000000     0.130160000000     0.0344821  
H207     H      0.903810000000     0.499500000000     0.155570000000     0.0382364  
H208     H      0.870810000000     0.566040000000     0.133650000000     0.0347123  
H209     H      0.352700000000     0.848340000000     0.314000000000     0.0340508  
H210     H      0.337150000000     0.786230000000     0.270090000000     0.0361867  
H211     H      0.294840000000     0.812560000000     0.223790000000     0.0345587  
H212     H      0.388120000000     0.890350000000     0.301580000000     0.0358575  
H213     H      0.306910000000     0.906400000000     0.298680000000     0.0360341  
H214     H      0.337440000000     0.916680000000     0.262960000000     0.0345418  
H215     H      0.369680000000     0.787840000000     0.234060000000     0.0353141  
H216     H      0.333710000000     0.854360000000     0.216560000000     0.0375586  
H217     H      0.675860000000     0.899070000000     0.247110000000     0.0347265  
H218     H      0.669480000000     0.834290000000     0.292380000000     0.0377666  
H219     H      0.632870000000     0.770710000000     0.269980000000     0.0356748  
H220     H      0.710870000000     0.887910000000     0.213940000000     0.0354375  
H221     H      0.629800000000     0.876680000000     0.203990000000     0.0357475  
H222     H      0.664480000000     0.832920000000     0.193900000000     0.0343448  
H223     H      0.707000000000     0.790830000000     0.286850000000     0.0331481  
H224     H      0.670150000000     0.769300000000     0.236630000000     0.03658    
H225     H      0.341430000000     0.825260000000     0.043730000000     0.0380391  
H226     H      0.335810000000     0.885920000000     0.994850000000     0.0343948  
H227     H      0.393390000000     0.868470000000     0.459080000000     0.0352637  
H228     H      0.312620000000     0.776280000000     0.035720000000     0.0328473  
H229     H      0.392060000000     0.767810000000     0.029380000000     0.0337891  
H230     H      0.363240000000     0.757670000000     0.492330000000     0.0365613  
H231     H      0.310720000000     0.867370000000     0.458650000000     0.035653   
H232     H      0.368330000000     0.819380000000     0.447130000000     0.0338517  
H233     H      0.700370000000     0.773420000000     0.999780000000     0.0341957  
H234     H      0.690020000000     0.838560000000     0.456640000000     0.0369053  
H235     H      0.644110000000     0.896030000000     0.478390000000     0.0353009  
H236     H      0.731500000000     0.785730000000     0.034860000000     0.0366358  
H237     H      0.649500000000     0.787570000000     0.041880000000     0.0359324  
H238     H      0.678070000000     0.834360000000     0.054590000000     0.0341475  
H239     H      0.721230000000     0.886110000000     0.464560000000     0.0357032  
H240     H      0.678480000000     0.901060000000     0.513290000000     0.0369471  
H241     H      0.487390000000     0.872060000000     0.384730000000     0.0355732  
H242     H      0.484450000000     0.781720000000     0.387320000000     0.0352052  
H243     H      0.532910000000     0.757010000000     0.345930000000     0.0377124  
H244     H      0.532500000000     0.895230000000     0.405350000000     0.0381096  
H245     H      0.542590000000     0.894640000000     0.346380000000     0.0378789  
H246     H      0.582660000000     0.863780000000     0.367180000000     0.0340433  
H247     H      0.529880000000     0.757930000000     0.406850000000     0.0379093  
H248     H      0.578150000000     0.781510000000     0.365280000000     0.0326     
H249     H      0.441200000000     0.872860000000     0.130610000000     0.0338522  
H250     H      0.444780000000     0.791220000000     0.128390000000     0.0334633  
H251     H      0.509200000000     0.764280000000     0.101040000000     0.0385817  
H252     H      0.476360000000     0.901200000000     0.157440000000     0.0383357  
H253     H      0.499900000000     0.902010000000     0.099190000000     0.0377713  
H254     H      0.539070000000     0.880290000000     0.126330000000     0.0349135  
H255     H      0.479190000000     0.763170000000     0.155990000000     0.0378295  
H256     H      0.543230000000     0.792490000000     0.128780000000     0.0363543  
H257     H      0.232450000000     0.033850000000     0.801900000000     0.0346029  
H258     H      0.238960000000     0.041170000000     0.737910000000     0.0344646  
H259     H      0.182350000000     0.998340000000     0.714360000000     0.0379728  
H260     H      0.194510000000     0.067890000000     0.821970000000     0.0380784  
H261     H      0.167790000000     0.994080000000     0.817710000000     0.0389285  
H262     H      0.134460000000     0.030770000000     0.795800000000     0.0356059  
H263     H      0.201910000000     0.076680000000     0.718360000000     0.037516   
H264     H      0.141420000000     0.031500000000     0.731830000000     0.0343949  
H265     H      0.126080000000     0.997040000000     0.467930000000     0.0348113  
H266     H      0.119820000000     0.990540000000     0.531210000000     0.0351628  
H267     H      0.179500000000     0.949490000000     0.554120000000     0.0375814  
H268     H      0.166180000000     0.032550000000     0.952030000000     0.0379558  
H269     H      0.187370000000     0.955020000000     0.950310000000     0.037561   
H270     H      0.223780000000     0.988030000000     0.972750000000     0.0339611  
H271     H      0.153580000000     0.024110000000     0.555480000000     0.038771   
H272     H      0.217830000000     0.985870000000     0.036850000000     0.0347123  
H273     H      0.031820000000     0.143770000000     0.736450000000     0.0349943  
H274     H      0.028180000000     0.145160000000     0.801210000000     0.0355344  
H275     H      0.067410000000     0.207060000000     0.822170000000     0.0379446  
H276     H      0.998890000000     0.181740000000     0.715430000000     0.0383969  
H277     H      0.076480000000     0.202880000000     0.718460000000     0.0376459  
H278     H      0.040630000000     0.241460000000     0.736010000000     0.0345556  
H279     H      0.991790000000     0.182730000000     0.819240000000     0.038345   
H280     H      0.034220000000     0.242950000000     0.799450000000     0.0343913  
H281     H      0.997580000000     0.130290000000     0.546720000000     0.0358463  
H282     H      0.995880000000     0.128170000000     0.982560000000     0.035376   
H283     H      0.961030000000     0.192740000000     0.961700000000     0.0373855  
H284     H      0.036860000000     0.164270000000     0.565470000000     0.0383267  
H285     H      0.963720000000     0.196570000000     0.565770000000     0.0377227  
H286     H      0.001870000000     0.228150000000     0.543790000000     0.0336538  
H287     H      0.034160000000     0.160530000000     0.961330000000     0.0386562  
H288     H      0.000210000000     0.226140000000     0.981230000000     0.0340122  
H289     H      0.006290000000     0.908880000000     0.740570000000     0.0357634  
H290     H      0.010920000000     0.901220000000     0.804450000000     0.0342542  
H291     H      0.963570000000     0.843080000000     0.818150000000     0.0378054  
H292     H      0.041860000000     0.876570000000     0.716780000000     0.038645   
H293     H      0.968830000000     0.848650000000     0.714370000000     0.0381566  
H294     H      0.003760000000     0.811210000000     0.734100000000     0.0347442  
H295     H      0.043980000000     0.858930000000     0.819870000000     0.0380215  
H296     H      0.997200000000     0.804580000000     0.798420000000     0.0346288  
H297     H      0.800650000000     0.008340000000     0.796510000000     0.0342423  
H298     H      0.806350000000     0.012990000000     0.732700000000     0.0346354  
H299     H      0.874240000000     0.046090000000     0.714610000000     0.0386279  
H300     H      0.835660000000     0.971330000000     0.816610000000     0.0373427  
H301     H      0.860580000000     0.048540000000     0.818170000000     0.0378415  
H302     H      0.898730000000     0.011830000000     0.801250000000     0.0344512  
H303     H      0.840550000000     0.975230000000     0.712630000000     0.0384921  
H304     H      0.904400000000     0.008060000000     0.737820000000     0.0356137  
H305     H      0.013210000000     0.796920000000     0.530350000000     0.0347557  
H306     H      0.013410000000     0.798560000000     0.966210000000     0.0353832  
H307     H      0.982770000000     0.866350000000     0.947020000000     0.0385036  
H308     H      0.053650000000     0.827550000000     0.550860000000     0.0377057  
H309     H      0.982320000000     0.863870000000     0.551120000000     0.0380594  
H310     H      0.022740000000     0.894550000000     0.530710000000     0.0345974  
H311     H      0.054020000000     0.829980000000     0.946690000000     0.0388106  
H312     H      0.023000000000     0.896150000000     0.968460000000     0.0351172  
H313     H      0.883310000000     0.028090000000     0.550070000000     0.0341918  
H314     H      0.888580000000     0.028000000000     0.984980000000     0.0364267  
H315     H      0.832250000000     0.984180000000     0.958940000000     0.0385529  
H316     H      0.836470000000     0.052920000000     0.566880000000     0.0375811  
H317     H      0.834180000000     0.971090000000     0.562430000000     0.0374735  
H318     H      0.789670000000     0.999190000000     0.544930000000     0.034241   
H319     H      0.849850000000     0.059590000000     0.963570000000     0.0387314  
H320     H      0.791700000000     0.011600000000     0.981670000000     0.0346225  
H321     H      0.232850000000     0.711160000000     0.765880000000     0.0338876  
H322     H      0.169320000000     0.707180000000     0.720020000000     0.0368611  
H323     H      0.111290000000     0.659050000000     0.737360000000     0.0343742  
H324     H      0.219180000000     0.739190000000     0.802070000000     0.0364436  
H325     H      0.215280000000     0.657550000000     0.805150000000     0.0364126  
H326     H      0.167910000000     0.685680000000     0.817370000000     0.0343773  
H327     H      0.121810000000     0.737980000000     0.729030000000     0.0345065  
H328     H      0.103490000000     0.689740000000     0.773780000000     0.0371303  
H329     H      0.255540000000     0.368640000000     0.780510000000     0.0344393  
H330     H      0.193920000000     0.366570000000     0.825060000000     0.0365859  
H331     H      0.127950000000     0.399630000000     0.804230000000     0.0351921  
H332     H      0.251540000000     0.331160000000     0.747850000000     0.0341144  
H333     H      0.228910000000     0.406960000000     0.733790000000     0.0357473  
H334     H      0.188420000000     0.367200000000     0.726950000000     0.036226   
H335     H      0.153170000000     0.325890000000     0.820370000000     0.0345448  
H336     H      0.125480000000     0.361320000000     0.771710000000     0.0369833  
H337     H      0.241790000000     0.659940000000     0.500340000000     0.0349361  
H338     H      0.176870000000     0.655490000000     0.957920000000     0.0368915  
H339     H      0.115360000000     0.618750000000     0.982480000000     0.0349384  
H340     H      0.237040000000     0.699000000000     0.531910000000     0.0329699  
H341     H      0.220930000000     0.622730000000     0.549210000000     0.0352837  
H342     H      0.178020000000     0.659910000000     0.556170000000     0.0361918  
H343     H      0.133820000000     0.693580000000     0.963480000000     0.0332102  
H344     H      0.112230000000     0.658500000000     0.013970000000     0.036711   
H345     H      0.232870000000     0.335190000000     0.512320000000     0.0368549  
H346     H      0.167320000000     0.341110000000     0.968910000000     0.0344686  
H347     H      0.116380000000     0.286340000000     0.982670000000     0.0361681  
H348     H      0.224220000000     0.362750000000     0.549990000000     0.0338115  
H349     H      0.215430000000     0.282760000000     0.554430000000     0.0336742  
H350     H      0.167510000000     0.311980000000     0.565160000000     0.0367632  
H351     H      0.119850000000     0.367780000000     0.982690000000     0.0360922  
H352     H      0.103970000000     0.311550000000     0.020300000000     0.0343909  
H353     H      0.129820000000     0.558210000000     0.895570000000     0.035304   
H354     H      0.214880000000     0.561560000000     0.893290000000     0.0343764  
H355     H      0.242820000000     0.499650000000     0.921740000000     0.0381687  
H356     H      0.102920000000     0.524980000000     0.866570000000     0.0385737  
H357     H      0.104430000000     0.491030000000     0.920130000000     0.0384937  
H358     H      0.134080000000     0.460390000000     0.891100000000     0.0343273  
H359     H      0.241520000000     0.527620000000     0.864740000000     0.0385273  
H360     H      0.218710000000     0.463640000000     0.893270000000     0.0347625  
H361     H      0.204340000000     0.563740000000     0.640910000000     0.034866   
H362     H      0.119540000000     0.559560000000     0.643160000000     0.0339158  
H363     H      0.097130000000     0.495260000000     0.614970000000     0.0377853  
H364     H      0.234140000000     0.533300000000     0.670070000000     0.037869   
H365     H      0.235680000000     0.499020000000     0.616560000000     0.0382855  
H366     H      0.209150000000     0.465940000000     0.645770000000     0.0343306  
H367     H      0.095900000000     0.523730000000     0.671870000000     0.037716   
H368     H      0.124120000000     0.461680000000     0.643630000000     0.0348728  
H369     H      0.363340000000     0.190700000000     0.828070000000     0.0368335  
H370     H      0.368080000000     0.250790000000     0.781960000000     0.0344128  
H371     H      0.412100000000     0.223220000000     0.738680000000     0.0354671  
H372     H      0.324000000000     0.149020000000     0.821990000000     0.0347961  
H373     H      0.399930000000     0.125050000000     0.810540000000     0.0343759  
H374     H      0.364800000000     0.120470000000     0.776080000000     0.0368386  
H375     H      0.334060000000     0.243940000000     0.747450000000     0.0348409  
H376     H      0.374080000000     0.181620000000     0.730300000000     0.0354178  
H377     H      0.699730000000     0.168240000000     0.719140000000     0.0364778  
H378     H      0.701380000000     0.230850000000     0.763570000000     0.0348912  
H379     H      0.662370000000     0.207740000000     0.811300000000     0.0353956  
H380     H      0.737080000000     0.124760000000     0.725180000000     0.0330779  
H381     H      0.660230000000     0.106840000000     0.740870000000     0.0349659  
H382     H      0.698250000000     0.101210000000     0.773450000000     0.0365515  
H383     H      0.738990000000     0.224930000000     0.796050000000     0.0332134  
H384     H      0.699120000000     0.164230000000     0.817330000000     0.0357089  
H385     H      0.330230000000     0.159120000000     0.968120000000     0.0364501  
H386     H      0.326150000000     0.094750000000     0.010700000000     0.0347893  
H387     H      0.368980000000     0.113790000000     0.557210000000     0.0363617  
H388     H      0.294540000000     0.203720000000     0.975140000000     0.0349594  
H389     H      0.371300000000     0.219140000000     0.990630000000     0.0354468  
H390     H      0.334330000000     0.223760000000     0.523970000000     0.0360149  
H391     H      0.290360000000     0.101320000000     0.544210000000     0.0359128  
H392     H      0.334380000000     0.158000000000     0.566350000000     0.0349256  
H393     H      0.661590000000     0.105800000000     0.528990000000     0.0369415  
H394     H      0.656600000000     0.166780000000     0.574570000000     0.0343656  
H395     H      0.705490000000     0.222440000000     0.559040000000     0.0368359  
H396     H      0.627750000000     0.113220000000     0.994050000000     0.0346634  
H397     H      0.705340000000     0.129490000000     0.982990000000     0.0347936  
H398     H      0.670780000000     0.175090000000     0.976730000000     0.0372963  
H399     H      0.624390000000     0.212690000000     0.565340000000     0.0355929  
H400     H      0.673840000000     0.236030000000     0.024500000000     0.0344035  
H401     H      0.469500000000     0.209370000000     0.901750000000     0.0347328  
H402     H      0.465450000000     0.124420000000     0.901430000000     0.0345787  
H403     H      0.527540000000     0.094760000000     0.873220000000     0.038119   
H404     H      0.506120000000     0.234030000000     0.929480000000     0.0383763  
H405     H      0.533640000000     0.232740000000     0.872990000000     0.0382065  
H406     H      0.567710000000     0.204670000000     0.900730000000     0.0343693  
H407     H      0.499230000000     0.096100000000     0.929290000000     0.0376979  
H408     H      0.563780000000     0.119930000000     0.901060000000     0.0345167  
H409     H      0.562170000000     0.119200000000     0.648930000000     0.0348323  
H410     H      0.566180000000     0.203490000000     0.648720000000     0.0344732  
H411     H      0.501330000000     0.233570000000     0.624100000000     0.0378873  
H412     H      0.528690000000     0.093910000000     0.678520000000     0.0379825  
H413     H      0.495040000000     0.095490000000     0.623940000000     0.0383326  
H414     H      0.464140000000     0.123850000000     0.653540000000     0.034672   
H415     H      0.535370000000     0.231980000000     0.678390000000     0.0379279  
H416     H      0.468030000000     0.207980000000     0.653760000000     0.0341673  
H417     H      0.856340000000     0.359890000000     0.811160000000     0.0342365  
H418     H      0.920990000000     0.359390000000     0.767230000000     0.0372216  
H419     H      0.906830000000     0.307930000000     0.723550000000     0.0332735  
H420     H      0.806560000000     0.382740000000     0.798110000000     0.0355823  
H421     H      0.810900000000     0.300810000000     0.797370000000     0.0343676  
H422     H      0.794260000000     0.325720000000     0.760580000000     0.0336142  
H423     H      0.910310000000     0.387700000000     0.730140000000     0.0349112  
H424     H      0.856530000000     0.333950000000     0.714340000000     0.0376106  
H425     H      0.835120000000     0.680890000000     0.796860000000     0.0381047  
H426     H      0.896430000000     0.688230000000     0.748640000000     0.0353233  
H427     H      0.875000000000     0.638220000000     0.707670000000     0.0346477  
H428     H      0.787860000000     0.713360000000     0.790890000000     0.033687   
H429     H      0.774840000000     0.635840000000     0.778800000000     0.0343418  
H430     H      0.766570000000     0.669840000000     0.744080000000     0.0359851  
H431     H      0.880480000000     0.719600000000     0.714580000000     0.0357099  
H432     H      0.827280000000     0.668160000000     0.698930000000     0.0337314  
H433     H      0.828120000000     0.340640000000     0.969130000000     0.0378756  
H434     H      0.892030000000     0.336390000000     0.515900000000     0.0345171  
H435     H      0.878110000000     0.395390000000     0.551150000000     0.035607   
H436     H      0.778880000000     0.313880000000     0.979990000000     0.0336922  
H437     H      0.773320000000     0.393690000000     0.984000000000     0.0346829  
H438     H      0.764410000000     0.367280000000     0.022160000000     0.0362306  
H439     H      0.875460000000     0.313460000000     0.553390000000     0.0368105  
H440     H      0.828920000000     0.372190000000     0.565080000000     0.0336111  
H441     H      0.862360000000     0.678060000000     0.541010000000     0.0353503  
H442     H      0.797840000000     0.684330000000     0.494500000000     0.0371724  
H443     H      0.823510000000     0.726360000000     0.948170000000     0.0352193  
H444     H      0.906580000000     0.644510000000     0.530020000000     0.0362896  
H445     H      0.918800000000     0.724960000000     0.523030000000     0.0350751  
H446     H      0.928610000000     0.692610000000     0.988070000000     0.0341527  
H447     H      0.805350000000     0.649690000000     0.960180000000     0.0336658  
H448     H      0.868780000000     0.690780000000     0.943100000000     0.0364992  
H449     H      0.805910000000     0.469350000000     0.882410000000     0.0350085  
H450     H      0.891290000000     0.468870000000     0.886870000000     0.0344098  
H451     H      0.916560000000     0.523650000000     0.850330000000     0.0372257  
H452     H      0.776980000000     0.506230000000     0.907420000000     0.0381452  
H453     H      0.778230000000     0.531350000000     0.851550000000     0.0379856  
H454     H      0.807730000000     0.567070000000     0.877090000000     0.0346127  
H455     H      0.915440000000     0.510110000000     0.910940000000     0.0378844  
H456     H      0.892490000000     0.565440000000     0.873980000000     0.0347631  
H457     H      0.790870000000     0.464830000000     0.630850000000     0.034335   
H458     H      0.874920000000     0.468550000000     0.626320000000     0.0351246  
H459     H      0.901550000000     0.537720000000     0.604000000000     0.0379672  
H460     H      0.765170000000     0.499270000000     0.659650000000     0.0380341  
H461     H      0.763350000000     0.526260000000     0.601680000000     0.0376617  
H462     H      0.786700000000     0.562840000000     0.630160000000     0.0344845  
H463     H      0.903810000000     0.499500000000     0.655560000000     0.0382318  
H464     H      0.870810000000     0.566040000000     0.633650000000     0.0347123  
H465     H      0.352700000000     0.848340000000     0.814000000000     0.0340401  
H466     H      0.337150000000     0.786230000000     0.770090000000     0.0361951  
H467     H      0.294840000000     0.812560000000     0.723790000000     0.034557   
H468     H      0.388120000000     0.890350000000     0.801580000000     0.0358421  
H469     H      0.306910000000     0.906400000000     0.798680000000     0.0360354  
H470     H      0.337440000000     0.916680000000     0.762960000000     0.0345441  
H471     H      0.369680000000     0.787840000000     0.734060000000     0.0353255  
H472     H      0.333710000000     0.854360000000     0.716560000000     0.0375576  
H473     H      0.675860000000     0.899070000000     0.747110000000     0.0347189  
H474     H      0.669480000000     0.834290000000     0.792380000000     0.0377605  
H475     H      0.632870000000     0.770710000000     0.769980000000     0.0356762  
H476     H      0.710870000000     0.887910000000     0.713940000000     0.0354272  
H477     H      0.629800000000     0.876680000000     0.703990000000     0.0357561  
H478     H      0.664480000000     0.832920000000     0.693910000000     0.0343642  
H479     H      0.707000000000     0.790830000000     0.786850000000     0.0331399  
H480     H      0.670150000000     0.769300000000     0.736630000000     0.0365799  
H481     H      0.341430000000     0.825260000000     0.543730000000     0.0380554  
H482     H      0.335810000000     0.885920000000     0.494850000000     0.0343629  
H483     H      0.393390000000     0.868470000000     0.959080000000     0.0352703  
H484     H      0.312620000000     0.776280000000     0.535720000000     0.0328643  
H485     H      0.392060000000     0.767810000000     0.529370000000     0.0337774  
H486     H      0.363240000000     0.757670000000     0.992330000000     0.0366843  
H487     H      0.310720000000     0.867370000000     0.958650000000     0.035648   
H488     H      0.368330000000     0.819380000000     0.947130000000     0.0338553  
H489     H      0.700370000000     0.773420000000     0.499780000000     0.0340583  
H490     H      0.690020000000     0.838560000000     0.956640000000     0.0369226  
H491     H      0.644110000000     0.896030000000     0.978400000000     0.0353054  
H492     H      0.731500000000     0.785730000000     0.534860000000     0.0366034  
H493     H      0.649500000000     0.787570000000     0.541880000000     0.0359697  
H494     H      0.678070000000     0.834360000000     0.554590000000     0.034172   
H495     H      0.721230000000     0.886110000000     0.964560000000     0.0357258  
H496     H      0.678480000000     0.901060000000     0.013290000000     0.036835   
H497     H      0.487390000000     0.872060000000     0.884730000000     0.0355775  
H498     H      0.484450000000     0.781720000000     0.887320000000     0.0352096  
H499     H      0.532910000000     0.757010000000     0.845930000000     0.0377142  
H500     H      0.532500000000     0.895230000000     0.905340000000     0.0381155  
H501     H      0.542590000000     0.894640000000     0.846380000000     0.0378785  
H502     H      0.582660000000     0.863780000000     0.867180000000     0.0340455  
H503     H      0.529880000000     0.757930000000     0.906850000000     0.0379213  
H504     H      0.578150000000     0.781510000000     0.865280000000     0.0326033  
H505     H      0.441200000000     0.872860000000     0.630610000000     0.033857   
H506     H      0.444780000000     0.791220000000     0.628390000000     0.0334686  
H507     H      0.509200000000     0.764280000000     0.601040000000     0.0385809  
H508     H      0.476360000000     0.901200000000     0.657440000000     0.0383368  
H509     H      0.499900000000     0.902010000000     0.599190000000     0.0377765  
H510     H      0.539070000000     0.880290000000     0.626330000000     0.0349127  
H511     H      0.479190000000     0.763170000000     0.655990000000     0.0378333  
H512     H      0.543230000000     0.792490000000     0.628770000000     0.0363518  
N1       N      0.172650000000     0.991710000000     0.265620000000    -0.179229   
N2       N      0.200910000000     0.076770000000     0.270410000000    -0.17982    
N3       N      0.185880000000     0.947830000000     0.002190000000    -0.180646   
N4       N      0.158170000000     0.032860000000     0.503740000000    -0.179979   
N5       N      0.076520000000     0.206760000000     0.270400000000    -0.179917   
N6       N      0.990910000000     0.179090000000     0.267180000000    -0.179515   
N7       N      0.957890000000     0.195510000000     0.513720000000    -0.180985   
N8       N      0.039690000000     0.159710000000     0.013460000000    -0.18042    
N9       N      0.961600000000     0.842910000000     0.266180000000    -0.179505   
N10      N      0.047580000000     0.870140000000     0.268650000000    -0.179112   
N11      N      0.869450000000     0.051800000000     0.266580000000    -0.179909   
N12      N      0.835580000000     0.968880000000     0.264570000000    -0.180098   
N13      N      0.977910000000     0.865930000000     0.999040000000    -0.180004   
N14      N      0.057960000000     0.825810000000     0.498780000000    -0.180301   
N15      N      0.831880000000     0.972730000000     0.510510000000    -0.179642   
N16      N      0.845880000000     0.061190000000     0.015800000000    -0.179691   
N17      N      0.161460000000     0.654600000000     0.272630000000    -0.179934   
N18      N      0.173010000000     0.742310000000     0.263500000000    -0.179888   
N19      N      0.175930000000     0.406250000000     0.267270000000    -0.180057   
N20      N      0.204010000000     0.325430000000     0.285330000000    -0.180419   
N21      N      0.166240000000     0.617710000000     0.517560000000    -0.180542   
N22      N      0.186980000000     0.699040000000     0.996120000000    -0.180749   
N23      N      0.164090000000     0.280760000000     0.520030000000    -0.18031    
N24      N      0.174220000000     0.369100000000     0.514780000000    -0.180168   
N25      N      0.173840000000     0.493220000000     0.424260000000    -0.18015    
N26      N      0.172130000000     0.528790000000     0.362410000000    -0.17983    
N27      N      0.166410000000     0.494540000000     0.112480000000    -0.179564   
N28      N      0.164910000000     0.530930000000     0.174260000000    -0.179516   
N29      N      0.409070000000     0.171600000000     0.273080000000    -0.180132   
N30      N      0.325820000000     0.198460000000     0.286000000000    -0.180315   
N31      N      0.658120000000     0.155530000000     0.277450000000    -0.180199   
N32      N      0.741010000000     0.176510000000     0.259070000000    -0.180889   
N33      N      0.373410000000     0.168450000000     0.025630000000    -0.180502   
N34      N      0.289180000000     0.151110000000     0.008240000000    -0.180849   
N35      N      0.708740000000     0.178820000000     0.518910000000    -0.180193   
N36      N      0.622680000000     0.161160000000     0.030910000000    -0.180494   
N37      N      0.532940000000     0.163630000000     0.369800000000    -0.179862   
N38      N      0.500150000000     0.165180000000     0.432670000000    -0.179841   
N39      N      0.496150000000     0.164640000000     0.120770000000    -0.180094   
N40      N      0.534210000000     0.162860000000     0.181690000000    -0.180188   
N41      N      0.856890000000     0.300530000000     0.258620000000    -0.180184   
N42      N      0.860050000000     0.389190000000     0.265600000000    -0.180096   
N43      N      0.823820000000     0.633560000000     0.242360000000    -0.180639   
N44      N      0.837360000000     0.719800000000     0.255170000000    -0.180158   
N45      N      0.824460000000     0.398460000000     0.018520000000    -0.180608   
N46      N      0.830030000000     0.309590000000     0.014390000000    -0.180215   
N47      N      0.871990000000     0.729120000000     0.485010000000    -0.180573   
N48      N      0.852280000000     0.644090000000     0.997820000000    -0.180308   
N49      N      0.847660000000     0.528990000000     0.347440000000    -0.17997    
N50      N      0.846280000000     0.506040000000     0.412700000000    -0.179918   
N51      N      0.832210000000     0.533620000000     0.099460000000    -0.180478   
N52      N      0.834520000000     0.497680000000     0.161000000000    -0.180215   
N53      N      0.297610000000     0.862530000000     0.259310000000    -0.179534   
N54      N      0.382400000000     0.836710000000     0.269310000000    -0.179614   
N55      N      0.627820000000     0.822250000000     0.235710000000    -0.179811   
N56      N      0.711770000000     0.842570000000     0.252980000000    -0.17997    
N57      N      0.396370000000     0.816680000000     0.493190000000    -0.180945   
N58      N      0.307910000000     0.824900000000     0.499390000000    -0.180654   
N59      N      0.643190000000     0.843290000000     0.511670000000    -0.180697   
N60      N      0.730000000000     0.833870000000     0.997730000000    -0.180309   
N61      N      0.536850000000     0.825890000000     0.342750000000    -0.180347   
N62      N      0.525330000000     0.826670000000     0.409680000000    -0.180188   
N63      N      0.509270000000     0.833520000000     0.097150000000    -0.18036    
N64      N      0.478320000000     0.832180000000     0.160230000000    -0.180484   
N65      N      0.172650000000     0.991710000000     0.765620000000    -0.179233   
N66      N      0.200910000000     0.076770000000     0.770410000000    -0.179817   
N67      N      0.185880000000     0.947830000000     0.502190000000    -0.180535   
N68      N      0.158170000000     0.032860000000     0.003740000000    -0.180025   
N69      N      0.076520000000     0.206760000000     0.770400000000    -0.179862   
N70      N      0.990910000000     0.179090000000     0.767180000000    -0.179496   
N71      N      0.957890000000     0.195510000000     0.013720000000    -0.181023   
N72      N      0.039690000000     0.159710000000     0.513460000000    -0.180392   
N73      N      0.961600000000     0.842910000000     0.766180000000    -0.17951    
N74      N      0.047580000000     0.870140000000     0.768650000000    -0.179155   
N75      N      0.869450000000     0.051800000000     0.766590000000    -0.179907   
N76      N      0.835580000000     0.968880000000     0.764570000000    -0.180099   
N77      N      0.977910000000     0.865930000000     0.499040000000    -0.180038   
N78      N      0.057960000000     0.825810000000     0.998780000000    -0.180253   
N79      N      0.831880000000     0.972730000000     0.010510000000    -0.179681   
N80      N      0.845880000000     0.061190000000     0.515800000000    -0.179653   
N81      N      0.161460000000     0.654600000000     0.772630000000    -0.179934   
N82      N      0.173010000000     0.742310000000     0.763500000000    -0.179889   
N83      N      0.175930000000     0.406250000000     0.767270000000    -0.180041   
N84      N      0.204010000000     0.325430000000     0.785330000000    -0.180413   
N85      N      0.166240000000     0.617710000000     0.017560000000    -0.180607   
N86      N      0.186980000000     0.699040000000     0.496120000000    -0.180786   
N87      N      0.164090000000     0.280760000000     0.020040000000    -0.18028    
N88      N      0.174220000000     0.369100000000     0.014780000000    -0.180236   
N89      N      0.173840000000     0.493220000000     0.924250000000    -0.180058   
N90      N      0.172130000000     0.528790000000     0.862400000000    -0.179903   
N91      N      0.166410000000     0.494540000000     0.612480000000    -0.179567   
N92      N      0.164910000000     0.530930000000     0.674260000000    -0.179518   
N93      N      0.409070000000     0.171600000000     0.773080000000    -0.180127   
N94      N      0.325820000000     0.198460000000     0.786000000000    -0.180315   
N95      N      0.658120000000     0.155530000000     0.777450000000    -0.180207   
N96      N      0.741010000000     0.176510000000     0.759070000000    -0.180892   
N97      N      0.373410000000     0.168450000000     0.525630000000    -0.180532   
N98      N      0.289180000000     0.151110000000     0.508250000000    -0.180804   
N99      N      0.708740000000     0.178820000000     0.018910000000    -0.180249   
N100     N      0.622680000000     0.161160000000     0.530910000000    -0.180522   
N101     N      0.532940000000     0.163630000000     0.869800000000    -0.179781   
N102     N      0.500150000000     0.165180000000     0.932670000000    -0.179821   
N103     N      0.496150000000     0.164640000000     0.620760000000    -0.180182   
N104     N      0.534210000000     0.162860000000     0.681690000000    -0.180192   
N105     N      0.856890000000     0.300530000000     0.758620000000    -0.180188   
N106     N      0.860050000000     0.389190000000     0.765600000000    -0.180097   
N107     N      0.823820000000     0.633560000000     0.742360000000    -0.180648   
N108     N      0.837360000000     0.719800000000     0.755170000000    -0.180159   
N109     N      0.824460000000     0.398460000000     0.518520000000    -0.180644   
N110     N      0.830030000000     0.309590000000     0.514390000000    -0.180162   
N111     N      0.871990000000     0.729120000000     0.985020000000    -0.18054    
N112     N      0.852280000000     0.644090000000     0.497820000000    -0.180361   
N113     N      0.847660000000     0.528990000000     0.847440000000    -0.179977   
N114     N      0.846280000000     0.506040000000     0.912690000000    -0.179749   
N115     N      0.832210000000     0.533620000000     0.599460000000    -0.180481   
N116     N      0.834520000000     0.497680000000     0.661000000000    -0.180216   
N117     N      0.297610000000     0.862530000000     0.759310000000    -0.179535   
N118     N      0.382400000000     0.836710000000     0.769320000000    -0.179614   
N119     N      0.627820000000     0.822250000000     0.735710000000    -0.179806   
N120     N      0.711770000000     0.842570000000     0.752980000000    -0.180035   
N121     N      0.396370000000     0.816680000000     0.993190000000    -0.180889   
N122     N      0.307910000000     0.824900000000     0.999390000000    -0.180634   
N123     N      0.643190000000     0.843290000000     0.011680000000    -0.180774   
N124     N      0.730000000000     0.833870000000     0.497730000000    -0.180378   
N125     N      0.536850000000     0.825890000000     0.842750000000    -0.180348   
N126     N      0.525330000000     0.826670000000     0.909680000000    -0.180177   
N127     N      0.509270000000     0.833520000000     0.597150000000    -0.180365   
N128     N      0.478320000000     0.832180000000     0.660230000000    -0.180482   
O1       O      0.510430000000     0.867410000000     0.047870000000    -0.558043   
O2       O      0.521440000000     0.863890000000     0.456950000000    -0.564365   
O3       O      0.455740000000     0.859160000000     0.997240000000    -0.559301   
O4       O      0.576290000000     0.871970000000     0.505690000000    -0.560259   
O5       O      0.583450000000     0.800960000000     0.009030000000    -0.558506   
O6       O      0.462750000000     0.788230000000     0.501720000000    -0.560741   
O7       O      0.527480000000     0.792830000000     0.459000000000    -0.556733   
O8       O      0.518140000000     0.796530000000     0.050090000000    -0.56334    
O9       O      0.523200000000     0.863210000000     0.296290000000    -0.558112   
O10      O      0.491390000000     0.866740000000     0.208060000000    -0.556167   
O11      O      0.448390000000     0.868420000000     0.264520000000    -0.552086   
O12      O      0.566040000000     0.861580000000     0.240000000000    -0.552305   
O13      O      0.562990000000     0.790480000000     0.244950000000    -0.559231   
O14      O      0.442760000000     0.797620000000     0.258580000000    -0.558034   
O15      O      0.492850000000     0.795420000000     0.206750000000    -0.561615   
O16      O      0.513500000000     0.792510000000     0.296730000000    -0.559667   
O17      O      0.878370000000     0.510280000000     0.462640000000    -0.55583    
O18      O      0.870730000000     0.524540000000     0.053190000000    -0.564535   
O19      O      0.867520000000     0.457440000000     0.514050000000    -0.557754   
O20      O      0.881060000000     0.577380000000     0.003870000000    -0.55859    
O21      O      0.810010000000     0.584380000000     0.498500000000    -0.558143   
O22      O      0.796540000000     0.464500000000     0.008240000000    -0.559954   
O23      O      0.799580000000     0.530970000000     0.049570000000    -0.553253   
O24      O      0.807330000000     0.517420000000     0.458700000000    -0.560334   
O25      O      0.873360000000     0.508300000000     0.207080000000    -0.561465   
O26      O      0.880600000000     0.524000000000     0.297740000000    -0.553285   
O27      O      0.885920000000     0.456540000000     0.256980000000    -0.559258   
O28      O      0.868330000000     0.575700000000     0.245860000000    -0.55789    
O29      O      0.797580000000     0.566490000000     0.251630000000    -0.558036   
O30      O      0.815220000000     0.447100000000     0.262700000000    -0.555804   
O31      O      0.809760000000     0.514890000000     0.301540000000    -0.562915   
O32      O      0.802550000000     0.499160000000     0.211060000000    -0.555504   
O33      O      0.495790000000     0.129550000000     0.480940000000    -0.558356   
O34      O      0.498430000000     0.129130000000     0.072380000000    -0.558269   
O35      O      0.436330000000     0.131130000000     0.528320000000    -0.558459   
O36      O      0.558030000000     0.127590000000     0.025160000000    -0.557699   
O37      O      0.559790000000     0.198670000000     0.530760000000    -0.557318   
O38      O      0.438380000000     0.202240000000     0.023140000000    -0.557198   
O39      O      0.495080000000     0.200410000000     0.072460000000    -0.557796   
O40      O      0.503190000000     0.200510000000     0.481170000000    -0.55728    
O41      O      0.533370000000     0.127760000000     0.321510000000    -0.556492   
O42      O      0.529210000000     0.127670000000     0.230090000000    -0.557155   
O43      O      0.592140000000     0.123780000000     0.273570000000    -0.553878   
O44      O      0.470360000000     0.131770000000     0.277930000000    -0.553923   
O45      O      0.475310000000     0.202690000000     0.272270000000    -0.559267   
O46      O      0.596410000000     0.194780000000     0.278910000000    -0.559704   
O47      O      0.539240000000     0.198320000000     0.229980000000    -0.558792   
O48      O      0.532450000000     0.199100000000     0.321320000000    -0.558176   
O49      O      0.132330000000     0.492320000000     0.063130000000    -0.554505   
O50      O      0.136410000000     0.492250000000     0.471660000000    -0.561754   
O51      O      0.136360000000     0.431620000000     0.016320000000    -0.558271   
O52      O      0.132330000000     0.552930000000     0.516380000000    -0.558426   
O53      O      0.203870000000     0.555100000000     0.020080000000    -0.55817    
O54      O      0.207930000000     0.433690000000     0.519860000000    -0.557001   
O55      O      0.207920000000     0.494550000000     0.473550000000    -0.555021   
O56      O      0.203850000000     0.494400000000     0.065010000000    -0.560741   
O57      O      0.131020000000     0.526580000000     0.223370000000    -0.555681   
O58      O      0.134700000000     0.530310000000     0.314790000000    -0.557375   
O59      O      0.129350000000     0.589170000000     0.267360000000    -0.554571   
O60      O      0.136490000000     0.467790000000     0.271120000000    -0.554593   
O61      O      0.207480000000     0.472080000000     0.264220000000    -0.55764    
O62      O      0.200770000000     0.592940000000     0.271350000000    -0.557014   
O63      O      0.206250000000     0.528860000000     0.313320000000    -0.556656   
O64      O      0.201950000000     0.536040000000     0.221990000000    -0.557255   
O65      O      0.867280000000     0.787020000000     0.018450000000    -0.55403    
O66      O      0.842050000000     0.905040000000     0.031360000000    -0.550651   
O67      O      0.794570000000     0.833090000000     0.024160000000    -0.553443   
O68      O      0.913960000000     0.857640000000     0.025640000000    -0.557325   
O69      O      0.913680000000     0.861430000000     0.471980000000    -0.559283   
O70      O      0.792410000000     0.850790000000     0.472030000000    -0.562195   
O71      O      0.846880000000     0.915270000000     0.478300000000    -0.564034   
O72      O      0.857940000000     0.795930000000     0.465490000000    -0.561016   
O73      O      0.899560000000     0.846150000000     0.236720000000    -0.563604   
O74      O      0.778220000000     0.846910000000     0.229900000000    -0.558212   
O75      O      0.838750000000     0.906500000000     0.235810000000    -0.563731   
O76      O      0.840160000000     0.785450000000     0.230950000000    -0.559361   
O77      O      0.833110000000     0.781430000000     0.284470000000    -0.555845   
O78      O      0.833280000000     0.902910000000     0.289320000000    -0.553309   
O79      O      0.772830000000     0.840940000000     0.283440000000    -0.553903   
O80      O      0.894780000000     0.841920000000     0.290240000000    -0.550861   
O81      O      0.839400000000     0.125120000000     0.489560000000    -0.565395   
O82      O      0.824360000000     0.245160000000     0.488860000000    -0.560326   
O83      O      0.892590000000     0.192110000000     0.488040000000    -0.55892    
O84      O      0.771660000000     0.177120000000     0.490730000000    -0.559205   
O85      O      0.773610000000     0.185460000000     0.044180000000    -0.556828   
O86      O      0.895140000000     0.187570000000     0.041660000000    -0.561165   
O87      O      0.834290000000     0.246640000000     0.042180000000    -0.555371   
O88      O      0.836340000000     0.124800000000     0.043240000000    -0.551126   
O89      O      0.869540000000     0.114560000000     0.238150000000    -0.560924   
O90      O      0.865920000000     0.235720000000     0.234010000000    -0.556591   
O91      O      0.928270000000     0.177040000000     0.238060000000    -0.557159   
O92      O      0.806370000000     0.172110000000     0.234120000000    -0.554807   
O93      O      0.803170000000     0.177470000000     0.287800000000    -0.561221   
O94      O      0.924720000000     0.179970000000     0.291690000000    -0.55804    
O95      O      0.860880000000     0.238760000000     0.287710000000    -0.55795    
O96      O      0.865470000000     0.117360000000     0.291760000000    -0.555826   
O97      O      0.160390000000     0.093820000000     0.034160000000    -0.562439   
O98      O      0.171530000000     0.214070000000     0.041910000000    -0.558265   
O99      O      0.104980000000     0.158690000000     0.039300000000    -0.557933   
O100     O      0.226270000000     0.147790000000     0.036260000000    -0.559469   
O101     O      0.224550000000     0.162410000000     0.483580000000    -0.557936   
O102     O      0.103000000000     0.158670000000     0.485570000000    -0.561407   
O103     O      0.161150000000     0.220650000000     0.488860000000    -0.557047   
O104     O      0.164690000000     0.099570000000     0.480690000000    -0.554923   
O105     O      0.196890000000     0.138030000000     0.300660000000    -0.560305   
O106     O      0.198580000000     0.259070000000     0.308250000000    -0.556141   
O107     O      0.137620000000     0.200420000000     0.300690000000    -0.561697   
O108     O      0.258840000000     0.195760000000     0.308460000000    -0.557426   
O109     O      0.265390000000     0.203730000000     0.255160000000    -0.556596   
O110     O      0.143770000000     0.205920000000     0.247310000000    -0.554246   
O111     O      0.206680000000     0.264760000000     0.254890000000    -0.557615   
O112     O      0.203820000000     0.143680000000     0.247340000000    -0.555215   
O113     O      0.122380000000     0.821830000000     0.025670000000    -0.55976    
O114     O      0.244120000000     0.821110000000     0.025990000000    -0.562232   
O115     O      0.183460000000     0.882410000000     0.027260000000    -0.561502   
O116     O      0.184670000000     0.761290000000     0.024400000000    -0.562006   
O117     O      0.182100000000     0.763620000000     0.470560000000    -0.554489   
O118     O      0.183690000000     0.885130000000     0.473540000000    -0.559238   
O119     O      0.244100000000     0.825150000000     0.472190000000    -0.557002   
O120     O      0.122300000000     0.825020000000     0.471980000000    -0.559629   
O121     O      0.113670000000     0.864510000000     0.293500000000    -0.549953   
O122     O      0.235840000000     0.869660000000     0.288660000000    -0.552046   
O123     O      0.172420000000     0.927100000000     0.291640000000    -0.55849    
O124     O      0.178060000000     0.805920000000     0.290560000000    -0.554831   
O125     O      0.165940000000     0.806370000000     0.237510000000    -0.556537   
O126     O      0.174930000000     0.927790000000     0.237950000000    -0.55328    
O127     O      0.231550000000     0.861740000000     0.235260000000    -0.556614   
O128     O      0.110430000000     0.871140000000     0.240060000000    -0.560375   
O129     O      0.510430000000     0.867410000000     0.547870000000    -0.558074   
O130     O      0.521440000000     0.863890000000     0.956950000000    -0.564256   
O131     O      0.455740000000     0.859160000000     0.497240000000    -0.559386   
O132     O      0.576290000000     0.871970000000     0.005690000000    -0.560254   
O133     O      0.583450000000     0.800960000000     0.509030000000    -0.558495   
O134     O      0.462750000000     0.788230000000     0.001720000000    -0.560847   
O135     O      0.527480000000     0.792830000000     0.959000000000    -0.556641   
O136     O      0.518140000000     0.796530000000     0.550090000000    -0.563358   
O137     O      0.523200000000     0.863210000000     0.796290000000    -0.558116   
O138     O      0.491390000000     0.866740000000     0.708060000000    -0.556163   
O139     O      0.448390000000     0.868420000000     0.764520000000    -0.552078   
O140     O      0.566040000000     0.861580000000     0.740000000000    -0.552306   
O141     O      0.562990000000     0.790480000000     0.744950000000    -0.559229   
O142     O      0.442760000000     0.797620000000     0.758580000000    -0.558      
O143     O      0.492850000000     0.795420000000     0.706750000000    -0.56161    
O144     O      0.513500000000     0.792510000000     0.796730000000    -0.55967    
O145     O      0.878370000000     0.510280000000     0.962640000000    -0.555824   
O146     O      0.870730000000     0.524540000000     0.553190000000    -0.564572   
O147     O      0.867520000000     0.457440000000     0.014050000000    -0.557761   
O148     O      0.881060000000     0.577380000000     0.503860000000    -0.55849    
O149     O      0.810010000000     0.584380000000     0.998500000000    -0.558046   
O150     O      0.796540000000     0.464500000000     0.508240000000    -0.559945   
O151     O      0.799580000000     0.530970000000     0.549570000000    -0.553293   
O152     O      0.807330000000     0.517420000000     0.958700000000    -0.560282   
O153     O      0.873360000000     0.508300000000     0.707080000000    -0.561461   
O154     O      0.880600000000     0.524000000000     0.797740000000    -0.553255   
O155     O      0.885920000000     0.456540000000     0.756980000000    -0.559252   
O156     O      0.868330000000     0.575700000000     0.745860000000    -0.557884   
O157     O      0.797580000000     0.566490000000     0.751630000000    -0.558074   
O158     O      0.815220000000     0.447100000000     0.762700000000    -0.555845   
O159     O      0.809760000000     0.514890000000     0.801530000000    -0.563059   
O160     O      0.802550000000     0.499160000000     0.711060000000    -0.55556    
O161     O      0.495790000000     0.129550000000     0.980940000000    -0.558251   
O162     O      0.498430000000     0.129130000000     0.572380000000    -0.558326   
O163     O      0.436330000000     0.131130000000     0.028320000000    -0.558455   
O164     O      0.558030000000     0.127590000000     0.525160000000    -0.557692   
O165     O      0.559790000000     0.198670000000     0.030760000000    -0.557314   
O166     O      0.438380000000     0.202240000000     0.523140000000    -0.557191   
O167     O      0.495080000000     0.200410000000     0.572460000000    -0.557852   
O168     O      0.503190000000     0.200510000000     0.981170000000    -0.557172   
O169     O      0.533370000000     0.127760000000     0.821500000000    -0.556692   
O170     O      0.529210000000     0.127670000000     0.730090000000    -0.557229   
O171     O      0.592140000000     0.123780000000     0.773580000000    -0.553948   
O172     O      0.470360000000     0.131770000000     0.777930000000    -0.553966   
O173     O      0.475310000000     0.202690000000     0.772270000000    -0.55926    
O174     O      0.596410000000     0.194780000000     0.778910000000    -0.559707   
O175     O      0.539240000000     0.198320000000     0.729980000000    -0.558795   
O176     O      0.532450000000     0.199100000000     0.821320000000    -0.558223   
O177     O      0.132330000000     0.492320000000     0.563130000000    -0.55453    
O178     O      0.136410000000     0.492250000000     0.971660000000    -0.561623   
O179     O      0.136360000000     0.431620000000     0.516320000000    -0.558253   
O180     O      0.132330000000     0.552930000000     0.016380000000    -0.558442   
O181     O      0.203870000000     0.555100000000     0.520080000000    -0.558165   
O182     O      0.207930000000     0.433690000000     0.019860000000    -0.557004   
O183     O      0.207920000000     0.494550000000     0.973550000000    -0.554887   
O184     O      0.203850000000     0.494400000000     0.565010000000    -0.560766   
O185     O      0.131020000000     0.526580000000     0.723370000000    -0.555699   
O186     O      0.134700000000     0.530310000000     0.814790000000    -0.557385   
O187     O      0.129350000000     0.589170000000     0.767360000000    -0.554568   
O188     O      0.136490000000     0.467790000000     0.771130000000    -0.554569   
O189     O      0.207480000000     0.472080000000     0.764230000000    -0.557669   
O190     O      0.200770000000     0.592940000000     0.771350000000    -0.557022   
O191     O      0.206250000000     0.528860000000     0.813320000000    -0.556671   
O192     O      0.201950000000     0.536040000000     0.721990000000    -0.557279   
O193     O      0.867280000000     0.787020000000     0.518450000000    -0.55393    
O194     O      0.842050000000     0.905040000000     0.531360000000    -0.550678   
O195     O      0.794570000000     0.833090000000     0.524160000000    -0.553344   
O196     O      0.913960000000     0.857640000000     0.525640000000    -0.557227   
O197     O      0.913680000000     0.861430000000     0.971980000000    -0.559324   
O198     O      0.792410000000     0.850790000000     0.972030000000    -0.562233   
O199     O      0.846880000000     0.915270000000     0.978300000000    -0.563945   
O200     O      0.857940000000     0.795930000000     0.965490000000    -0.561067   
O201     O      0.899560000000     0.846150000000     0.736720000000    -0.563613   
O202     O      0.778220000000     0.846910000000     0.729900000000    -0.558295   
O203     O      0.838750000000     0.906500000000     0.735810000000    -0.563737   
O204     O      0.840160000000     0.785450000000     0.730950000000    -0.559366   
O205     O      0.833110000000     0.781430000000     0.784470000000    -0.555851   
O206     O      0.833280000000     0.902910000000     0.789320000000    -0.553317   
O207     O      0.772830000000     0.840940000000     0.783430000000    -0.554094   
O208     O      0.894780000000     0.841920000000     0.790240000000    -0.55087    
O209     O      0.839400000000     0.125120000000     0.989560000000    -0.565292   
O210     O      0.824360000000     0.245160000000     0.988860000000    -0.560219   
O211     O      0.892590000000     0.192110000000     0.988040000000    -0.558917   
O212     O      0.771660000000     0.177120000000     0.990730000000    -0.558991   
O213     O      0.773610000000     0.185460000000     0.544180000000    -0.556768   
O214     O      0.895140000000     0.187570000000     0.541660000000    -0.561321   
O215     O      0.834290000000     0.246640000000     0.542180000000    -0.555417   
O216     O      0.836340000000     0.124800000000     0.543240000000    -0.551167   
O217     O      0.869540000000     0.114560000000     0.738150000000    -0.560928   
O218     O      0.865920000000     0.235720000000     0.734010000000    -0.556592   
O219     O      0.928270000000     0.177040000000     0.738060000000    -0.557158   
O220     O      0.806370000000     0.172110000000     0.734120000000    -0.554808   
O221     O      0.803170000000     0.177470000000     0.787800000000    -0.561221   
O222     O      0.924720000000     0.179970000000     0.791690000000    -0.558037   
O223     O      0.860880000000     0.238760000000     0.787710000000    -0.55795    
O224     O      0.865470000000     0.117360000000     0.791760000000    -0.555821   
O225     O      0.160390000000     0.093820000000     0.534160000000    -0.562452   
O226     O      0.171530000000     0.214070000000     0.541910000000    -0.558259   
O227     O      0.104980000000     0.158690000000     0.539300000000    -0.557928   
O228     O      0.226270000000     0.147790000000     0.536260000000    -0.559471   
O229     O      0.224550000000     0.162410000000     0.983580000000    -0.55786    
O230     O      0.103000000000     0.158670000000     0.985570000000    -0.561339   
O231     O      0.161150000000     0.220650000000     0.988860000000    -0.556973   
O232     O      0.164690000000     0.099570000000     0.980690000000    -0.554852   
O233     O      0.196890000000     0.138030000000     0.800660000000    -0.560301   
O234     O      0.198580000000     0.259070000000     0.808250000000    -0.556135   
O235     O      0.137620000000     0.200420000000     0.800690000000    -0.561623   
O236     O      0.258840000000     0.195760000000     0.808460000000    -0.557417   
O237     O      0.265390000000     0.203730000000     0.755160000000    -0.556579   
O238     O      0.143770000000     0.205920000000     0.747300000000    -0.55404    
O239     O      0.206680000000     0.264760000000     0.754890000000    -0.557604   
O240     O      0.203820000000     0.143680000000     0.747340000000    -0.555201   
O241     O      0.122380000000     0.821830000000     0.525670000000    -0.559619   
O242     O      0.244120000000     0.821110000000     0.525990000000    -0.562088   
O243     O      0.183460000000     0.882410000000     0.527260000000    -0.561411   
O244     O      0.184670000000     0.761290000000     0.524400000000    -0.561859   
O245     O      0.182100000000     0.763620000000     0.970560000000    -0.55459    
O246     O      0.183690000000     0.885130000000     0.973550000000    -0.559387   
O247     O      0.244100000000     0.825150000000     0.972190000000    -0.557095   
O248     O      0.122300000000     0.825020000000     0.971980000000    -0.559722   
O249     O      0.113670000000     0.864510000000     0.793500000000    -0.54993    
O250     O      0.235840000000     0.869660000000     0.788660000000    -0.552047   
O251     O      0.172420000000     0.927100000000     0.791640000000    -0.558383   
O252     O      0.178060000000     0.805920000000     0.790560000000    -0.554939   
O253     O      0.165940000000     0.806370000000     0.737510000000    -0.556447   
O254     O      0.174930000000     0.927790000000     0.737950000000    -0.553396   
O255     O      0.231550000000     0.861740000000     0.735260000000    -0.556629   
O256     O      0.110430000000     0.871140000000     0.740070000000    -0.560685   
V1       V      0.515680000000     0.868460000000     0.002040000000     1.39573    
V2       V      0.523360000000     0.791790000000     0.504920000000     1.39472    
V3       V      0.507380000000     0.867940000000     0.252250000000     1.37634    
V4       V      0.502750000000     0.791110000000     0.251720000000     1.3979     
V5       V      0.877270000000     0.517060000000     0.508390000000     1.39279    
V6       V      0.800520000000     0.524700000000     0.003670000000     1.38861    
V7       V      0.879900000000     0.516550000000     0.251920000000     1.38802    
V8       V      0.803450000000     0.506400000000     0.256770000000     1.39086    
V9       V      0.497060000000     0.126430000000     0.526660000000     1.3894     
V10      V      0.499200000000     0.203390000000     0.026840000000     1.38814    
V11      V      0.531070000000     0.124810000000     0.275800000000     1.37866    
V12      V      0.536050000000     0.201630000000     0.275630000000     1.39555    
V13      V      0.131490000000     0.492170000000     0.017020000000     1.38927    
V14      V      0.208760000000     0.494510000000     0.519610000000     1.38958    
V15      V      0.129950000000     0.528300000000     0.269190000000     1.38052    
V16      V      0.207030000000     0.532680000000     0.267600000000     1.38958    
V17      V      0.854420000000     0.845370000000     0.027150000000     1.37214    
V18      V      0.852850000000     0.856220000000     0.469780000000     1.40319    
V19      V      0.839290000000     0.846320000000     0.231240000000     1.40427    
V20      V      0.833380000000     0.841790000000     0.289060000000     1.37084    
V21      V      0.831890000000     0.184900000000     0.487120000000     1.39962    
V22      V      0.834680000000     0.185990000000     0.045060000000     1.38099    
V23      V      0.867610000000     0.174810000000     0.233930000000     1.38643    
V24      V      0.863620000000     0.178390000000     0.291900000000     1.39071    
V25      V      0.165880000000     0.153490000000     0.040130000000     1.39494    
V26      V      0.163490000000     0.160560000000     0.482440000000     1.38536    
V27      V      0.197810000000     0.198140000000     0.306640000000     1.39301    
V28      V      0.205030000000     0.204640000000     0.249010000000     1.38279    
V29      V      0.183450000000     0.821610000000     0.027970000000     1.40095    
V30      V      0.183070000000     0.824660000000     0.469900000000     1.38519    
V31      V      0.175080000000     0.866670000000     0.293320000000     1.37499    
V32      V      0.170670000000     0.866890000000     0.235490000000     1.38788    
V33      V      0.515680000000     0.868460000000     0.502040000000     1.396      
V34      V      0.523360000000     0.791790000000     0.004920000000     1.39463    
V35      V      0.507380000000     0.867940000000     0.752250000000     1.37634    
V36      V      0.502750000000     0.791110000000     0.751720000000     1.39789    
V37      V      0.877270000000     0.517060000000     0.008390000000     1.39271    
V38      V      0.800520000000     0.524700000000     0.503670000000     1.38889    
V39      V      0.879900000000     0.516550000000     0.751920000000     1.38796    
V40      V      0.803450000000     0.506400000000     0.756770000000     1.39118    
V41      V      0.497060000000     0.126430000000     0.026660000000     1.38926    
V42      V      0.499200000000     0.203390000000     0.526840000000     1.38828    
V43      V      0.531070000000     0.124810000000     0.775800000000     1.37899    
V44      V      0.536050000000     0.201630000000     0.775630000000     1.39548    
V45      V      0.131490000000     0.492170000000     0.517020000000     1.38941    
V46      V      0.208760000000     0.494510000000     0.019610000000     1.38944    
V47      V      0.129950000000     0.528300000000     0.769190000000     1.38049    
V48      V      0.207030000000     0.532680000000     0.767600000000     1.38962    
V49      V      0.854420000000     0.845370000000     0.527150000000     1.37224    
V50      V      0.852850000000     0.856220000000     0.969780000000     1.40333    
V51      V      0.839290000000     0.846320000000     0.731240000000     1.40431    
V52      V      0.833380000000     0.841790000000     0.789060000000     1.37087    
V53      V      0.831890000000     0.184900000000     0.987120000000     1.3997     
V54      V      0.834680000000     0.185990000000     0.545060000000     1.38116    
V55      V      0.867610000000     0.174810000000     0.733930000000     1.38643    
V56      V      0.863620000000     0.178390000000     0.791900000000     1.39071    
V57      V      0.165880000000     0.153490000000     0.540120000000     1.39501    
V58      V      0.163490000000     0.160560000000     0.982440000000     1.38567    
V59      V      0.197810000000     0.198140000000     0.806640000000     1.39297    
V60      V      0.205030000000     0.204640000000     0.749010000000     1.38272    
V61      V      0.183450000000     0.821610000000     0.527970000000     1.40077    
V62      V      0.183070000000     0.824660000000     0.969890000000     1.38548    
V63      V      0.175080000000     0.866670000000     0.793320000000     1.37496    
V64      V      0.170670000000     0.866890000000     0.735490000000     1.38797    


