data_structure

_audit_creation_method RASPA-1.0
_audit_creation_date 2023-5-22
_audit_author_name 'Poobodin Mano'

_cell_length_a    31.3399
_cell_length_b    31.4536
_cell_length_c    31.2299
_cell_angle_alpha 90
_cell_angle_beta  90
_cell_angle_gamma 90
_cell_volume      30785

_symmetry_cell_setting          triclinic
_symmetry_space_group_name_Hall 'P 1'
_symmetry_space_group_name_H-M  'P 1'
_symmetry_Int_Tables_number     1

_symmetry_equiv_pos_as_xyz 'x,y,z'

loop_
_atom_site_label
_atom_site_type_symbol
_atom_site_fract_x
_atom_site_fract_y
_atom_site_fract_z
_atom_site_charge
C1       C      0.752770000000     0.338400000000     0.007490000000     0.471481   
C2       C      0.591160000000     0.335200000000     0.003160000000     0.471607   
C3       C      0.671820000000     0.417980000000     0.004170000000     0.470145   
C4       C      0.672530000000     0.256730000000     0.006390000000     0.471174   
C5       C      0.255020000000     0.331080000000     0.997420000000     0.474572   
C6       C      0.416100000000     0.342400000000     0.999340000000     0.472597   
C7       C      0.329380000000     0.416090000000     0.000970000000     0.474105   
C8       C      0.340260000000     0.255650000000     0.995970000000     0.473013   
C9       C      0.688400000000     0.752070000000     0.008100000000     0.471417   
C10      C      0.664800000000     0.592580000000     0.004300000000     0.470461   
C11      C      0.597100000000     0.684830000000     0.007680000000     0.472175   
C12      C      0.756980000000     0.661420000000     0.005250000000     0.47205    
C13      C      0.262140000000     0.660890000000     0.001660000000     0.473497   
C14      C      0.423200000000     0.672220000000     0.006620000000     0.471682   
C15      C      0.348610000000     0.587100000000     0.003960000000     0.473619   
C16      C      0.337080000000     0.747600000000     0.003660000000     0.472577   
C17      C      0.750100000000     0.001890000000     0.688690000000     0.466752   
C18      C      0.589090000000     0.009870000000     0.681950000000     0.468355   
C19      C      0.672670000000     0.003060000000     0.605160000000     0.465854   
C20      C      0.666930000000     0.009770000000     0.767340000000     0.466705   
C21      C      0.254820000000     0.004330000000     0.658120000000     0.470807   
C22      C      0.414490000000     0.010610000000     0.681800000000     0.469885   
C23      C      0.343930000000     0.005910000000     0.589170000000     0.469213   
C24      C      0.324390000000     0.010400000000     0.750010000000     0.470457   
C25      C      0.357720000000     0.021510000000     0.252670000000     0.469451   
C26      C      0.359880000000     0.009350000000     0.414070000000     0.468254   
C27      C      0.438060000000     0.012750000000     0.332330000000     0.4669     
C28      C      0.276390000000     0.018230000000     0.334160000000     0.465569   
C29      C      0.768620000000     0.992410000000     0.342380000000     0.478488   
C30      C      0.608350000000     0.003750000000     0.360250000000     0.468614   
C31      C      0.697550000000     0.999370000000     0.432460000000     0.480453   
C32      C      0.680000000000     0.996290000000     0.271050000000     0.477739   
C33      C      0.999460000000     0.671820000000     0.766010000000     0.478473   
C34      C      0.008300000000     0.667550000000     0.604090000000     0.469297   
C35      C      0.007270000000     0.589460000000     0.687490000000     0.468217   
C36      C      0.999940000000     0.750540000000     0.683410000000     0.475788   
C37      C      0.994840000000     0.258440000000     0.691210000000     0.478106   
C38      C      0.007220000000     0.417550000000     0.668960000000     0.469346   
C39      C      0.003230000000     0.327220000000     0.599110000000     0.47033    
C40      C      0.999130000000     0.346930000000     0.759800000000     0.481052   
C41      C      0.010950000000     0.681870000000     0.268250000000     0.467027   
C42      C      0.012420000000     0.687210000000     0.430460000000     0.468174   
C43      C      0.004070000000     0.603990000000     0.353440000000     0.470139   
C44      C      0.019830000000     0.763640000000     0.347900000000     0.472204   
C45      C      0.005230000000     0.348870000000     0.266010000000     0.471166   
C46      C      0.005090000000     0.352220000000     0.428040000000     0.470445   
C47      C      0.000930000000     0.430620000000     0.343450000000     0.468052   
C48      C      0.010930000000     0.270170000000     0.348340000000     0.471748   
C49      C      0.926380000000     0.357210000000     0.005140000000     0.469161   
C50      C      0.086990000000     0.357310000000     0.015210000000     0.471803   
C51      C      0.004750000000     0.349760000000     0.090530000000     0.467735   
C52      C      0.011690000000     0.364720000000     0.930250000000     0.472693   
C53      C      0.930350000000     0.647330000000     0.004120000000     0.471834   
C54      C      0.090310000000     0.662220000000     0.019210000000     0.471924   
C55      C      0.002810000000     0.661740000000     0.093080000000     0.464856   
C56      C      0.018220000000     0.647540000000     0.932440000000     0.472714   
C57      C      0.100540000000     0.016090000000     0.345440000000     0.469743   
C58      C      0.938920000000     0.014730000000     0.350550000000     0.471185   
C59      C      0.019250000000     0.936130000000     0.343250000000     0.476096   
C60      C      0.017380000000     0.096220000000     0.352650000000     0.47456    
C61      C      0.921950000000     0.005670000000     0.694570000000     0.476483   
C62      C      0.080870000000     0.005890000000     0.669110000000     0.475768   
C63      C      0.001050000000     0.085000000000     0.687050000000     0.468454   
C64      C      0.002390000000     0.924470000000     0.675460000000     0.467588   
C65      C      0.655660000000     0.007950000000     0.101630000000     0.473038   
C66      C      0.675550000000     0.002120000000     0.940880000000     0.463027   
C67      C      0.673040000000     0.924910000000     0.023900000000     0.470929   
C68      C      0.658150000000     0.085120000000     0.019630000000     0.47223    
C69      C      0.349330000000     0.994530000000     0.918630000000     0.475619   
C70      C      0.348510000000     0.008090000000     0.079500000000     0.46532    
C71      C      0.348080000000     0.921700000000     0.006780000000     0.468322   
C72      C      0.350850000000     0.081460000000     0.991350000000     0.469667   
C73      C      0.988780000000     0.203200000000     0.315480000000    -0.00153727 
C74      C      0.049830000000     0.205440000000     0.368360000000    -0.0068729  
C75      C      0.976590000000     0.159150000000     0.332020000000    -0.00584288 
C76      C      0.034130000000     0.163850000000     0.388150000000    -0.00671685 
C77      C      0.969190000000     0.330820000000     0.198730000000    -0.00567717 
C78      C      0.032210000000     0.381180000000     0.200160000000    -0.00842054 
C79      C      0.985460000000     0.312130000000     0.156700000000    -0.000806721
C80      C      0.045090000000     0.365570000000     0.155700000000    -0.00754509 
C81      C      0.039350000000     0.498330000000     0.334210000000    -0.0099927  
C82      C      0.959220000000     0.497510000000     0.333840000000    -0.00975365 
C83      C      0.039010000000     0.534890000000     0.365690000000    -0.00690047 
C84      C      0.959160000000     0.538860000000     0.360460000000    -0.00638562 
C85      C      0.984210000000     0.871360000000     0.368210000000     0.00107475 
C86      C      0.036260000000     0.869150000000     0.306450000000    -0.00615199 
C87      C      0.002300000000     0.829740000000     0.385080000000    -0.0153524  
C88      C      0.056500000000     0.829010000000     0.325280000000    -0.00775872 
C89      C      0.969370000000     0.694310000000     0.156890000000    -0.00826913 
C90      C      0.021660000000     0.633740000000     0.163980000000    -0.0121518  
C91      C      0.985380000000     0.712210000000     0.199960000000    -0.00248836 
C92      C      0.043060000000     0.656400000000     0.201310000000    -0.00614254 
C93      C      0.044570000000     0.320340000000     0.531540000000    -0.00876342 
C94      C      0.964750000000     0.318830000000     0.530170000000    -0.00586581 
C95      C      0.044590000000     0.354910000000     0.496960000000    -0.00892795 
C96      C      0.964350000000     0.353710000000     0.496130000000    -0.00618659 
C97      C      0.966730000000     0.373770000000     0.826630000000    -0.00826133 
C98      C      0.025690000000     0.318970000000     0.827950000000    -0.00863373 
C99      C      0.989530000000     0.398410000000     0.862440000000    -0.00157786 
C100     C      0.047630000000     0.343130000000     0.863830000000    -0.00570061 
C101     C      0.019290000000     0.194430000000     0.729910000000    -0.00954772 
C102     C      0.955420000000     0.191610000000     0.681490000000    -0.00755319 
C103     C      0.033780000000     0.150680000000     0.713620000000    -0.00875345 
C104     C      0.973370000000     0.152280000000     0.659500000000    -0.00370526 
C105     C      0.051530000000     0.662600000000     0.537420000000    -0.00908401 
C106     C      0.971490000000     0.661050000000     0.534290000000    -0.00601241 
C107     C      0.052270000000     0.693270000000     0.499140000000    -0.00925444 
C108     C      0.972200000000     0.693770000000     0.498350000000    -0.0059946  
C109     C      0.048740000000     0.522100000000     0.694240000000    -0.00980907 
C110     C      0.968640000000     0.520960000000     0.689270000000    -0.00564559 
C111     C      0.050740000000     0.483820000000     0.663470000000    -0.00929589 
C112     C      0.971330000000     0.486300000000     0.655460000000    -0.00574906 
C113     C      0.980240000000     0.857100000000     0.641260000000    -0.000936074
C114     C      0.041180000000     0.859140000000     0.693670000000    -0.00666683 
C115     C      0.962890000000     0.816970000000     0.663280000000    -0.00885982 
C116     C      0.025720000000     0.817730000000     0.713860000000    -0.0104767  
C117     C      0.026990000000     0.699300000000     0.834400000000    -0.00841218 
C118     C      0.968020000000     0.644750000000     0.833180000000    -0.00919746 
C119     C      0.051970000000     0.671950000000     0.865870000000    -0.00457506 
C120     C      0.993780000000     0.616720000000     0.864320000000    -0.00192736 
C121     C      0.837910000000     0.961410000000     0.362710000000    -0.0097819  
C122     C      0.832900000000     0.015740000000     0.303710000000    -0.0138768  
C123     C      0.873050000000     0.987860000000     0.384310000000     0.00066771 
C124     C      0.869960000000     0.040550000000     0.323270000000    -0.00531409 
C125     C      0.673460000000     0.046200000000     0.167650000000    -0.00402496 
C126     C      0.624630000000     0.982800000000     0.169780000000    -0.00040578 
C127     C      0.701680000000     0.026390000000     0.201830000000    -0.0101608  
C128     C      0.652910000000     0.962480000000     0.204650000000    -0.00950288 
C129     C      0.537740000000     0.968710000000     0.366820000000    -0.00591424 
C130     C      0.542790000000     0.048130000000     0.365480000000    -0.00884529 
C131     C      0.504540000000     0.970030000000     0.331060000000    -0.00590545 
C132     C      0.508150000000     0.049860000000     0.330800000000    -0.00937161 
C133     C      0.169850000000     0.032070000000     0.378600000000    -0.0073363  
C134     C      0.164600000000     0.983140000000     0.314900000000    -0.00708144 
C135     C      0.210260000000     0.051800000000     0.359720000000    -0.00756057 
C136     C      0.208810000000     0.998050000000     0.299840000000    -0.00138816 
C137     C      0.316530000000     0.034970000000     0.146450000000    -0.0082078  
C138     C      0.373430000000     0.978000000000     0.147400000000    -0.0067372  
C139     C      0.338110000000     0.056660000000     0.184790000000    -0.00771206 
C140     C      0.393350000000     0.998620000000     0.186680000000     0.000905361
C141     C      0.339650000000     0.965660000000     0.520970000000    -0.00679069 
C142     C      0.344080000000     0.045800000000     0.521370000000    -0.00778196 
C143     C      0.366500000000     0.964980000000     0.479760000000    -0.00621199 
C144     C      0.374340000000     0.044040000000     0.483480000000    -0.00818305 
C145     C      0.344950000000     0.044350000000     0.817790000000    -0.00737274 
C146     C      0.296290000000     0.980530000000     0.817540000000    -0.00330984 
C147     C      0.374620000000     0.021790000000     0.849450000000    -0.0108735  
C148     C      0.323290000000     0.960000000000     0.852720000000    -0.00737072 
C149     C      0.143900000000     0.042360000000     0.641620000000    -0.00918736 
C150     C      0.149740000000     0.977760000000     0.689920000000    -0.0023868  
C151     C      0.189030000000     0.032700000000     0.624560000000    -0.00827736 
C152     C      0.188550000000     0.963550000000     0.664900000000    -0.00498856 
C153     C      0.672630000000     0.960990000000     0.537830000000    -0.00678181 
C154     C      0.671750000000     0.041010000000     0.535550000000    -0.00933431 
C155     C      0.705560000000     0.960790000000     0.501540000000    -0.00556374 
C156     C      0.705350000000     0.040280000000     0.500040000000    -0.00820251 
C157     C      0.522680000000     0.051860000000     0.671830000000    -0.00933686 
C158     C      0.521110000000     0.971830000000     0.670660000000    -0.00562799 
C159     C      0.480540000000     0.051880000000     0.696950000000    -0.00886352 
C160     C      0.481320000000     0.972260000000     0.698500000000    -0.00539042 
C161     C      0.816810000000     0.965980000000     0.710390000000    -0.00978046 
C162     C      0.817260000000     0.026750000000     0.657350000000    -0.0108898  
C163     C      0.856070000000     0.985200000000     0.732660000000     0.000922106
C164     C      0.856400000000     0.045100000000     0.679210000000    -0.00407432 
C165     C      0.688510000000     0.044420000000     0.835170000000    -0.00775052 
C166     C      0.635620000000     0.983880000000     0.834760000000     0.000178745
C167     C      0.711280000000     0.024190000000     0.873810000000    -0.0115126  
C168     C      0.657320000000     0.964980000000     0.874100000000    -0.0083079  
C169     C      0.379770000000     0.852800000000     0.988510000000    -0.00741568 
C170     C      0.322120000000     0.857820000000     0.044580000000    -0.00870602 
C171     C      0.357490000000     0.814460000000     0.969010000000    -0.00659392 
C172     C      0.304960000000     0.814190000000     0.030350000000    -0.00847864 
C173     C      0.155570000000     0.700700000000     0.998350000000    -0.00729731 
C174     C      0.159110000000     0.638100000000     0.048800000000    -0.00684466 
C175     C      0.192410000000     0.681930000000     0.972140000000    -0.00756892 
C176     C      0.198440000000     0.621650000000     0.025070000000    -0.00702984 
C177     C      0.530140000000     0.699550000000     0.047970000000    -0.00868053 
C178     C      0.529910000000     0.697930000000     0.968010000000    -0.00768926 
C179     C      0.490270000000     0.671200000000     0.048900000000    -0.00907545 
C180     C      0.491930000000     0.667700000000     0.968150000000    -0.0081956  
C181     C      0.703230000000     0.859490000000     0.055210000000    -0.00880572 
C182     C      0.647540000000     0.856690000000     0.996570000000    -0.00612434 
C183     C      0.721520000000     0.816960000000     0.038700000000    -0.00847953 
C184     C      0.672300000000     0.821020000000     0.975140000000    -0.00761398 
C185     C      0.866710000000     0.665990000000     0.961920000000    -0.00687567 
C186     C      0.862010000000     0.612260000000     0.021120000000    -0.00806568 
C187     C      0.825310000000     0.686700000000     0.977050000000    -0.00840184 
C188     C      0.822680000000     0.634930000000     0.039170000000    -0.00715323 
C189     C      0.355740000000     0.519850000000     0.963210000000    -0.00799695 
C190     C      0.355070000000     0.518910000000     0.043590000000    -0.00870852 
C191     C      0.322270000000     0.484650000000     0.962520000000    -0.00765354 
C192     C      0.322200000000     0.482860000000     0.042850000000    -0.00837538 
C193     C      0.187760000000     0.356700000000     0.966090000000    -0.00745289 
C194     C      0.187190000000     0.303690000000     0.026770000000    -0.00709979 
C195     C      0.156130000000     0.384690000000     0.990590000000    -0.00785335 
C196     C      0.152290000000     0.329460000000     0.049020000000    -0.00656129 
C197     C      0.384900000000     0.149630000000     0.008890000000    -0.00785298 
C198     C      0.326920000000     0.145850000000     0.953260000000    -0.00821937 
C199     C      0.363910000000     0.188770000000     0.028470000000    -0.00662206 
C200     C      0.310040000000     0.189210000000     0.968190000000    -0.00857035 
C201     C      0.675730000000     0.485660000000     0.044480000000    -0.00844251 
C202     C      0.681150000000     0.485480000000     0.964010000000    -0.00902316 
C203     C      0.647780000000     0.525400000000     0.042320000000    -0.00859987 
C204     C      0.654060000000     0.526100000000     0.962480000000    -0.00861532 
C205     C      0.484100000000     0.353300000000     0.960080000000    -0.00848768 
C206     C      0.482720000000     0.354480000000     0.040370000000    -0.00849581 
C207     C      0.524610000000     0.326130000000     0.961190000000    -0.00847136 
C208     C      0.522610000000     0.326580000000     0.041680000000    -0.00841253 
C209     C      0.856410000000     0.386060000000     0.026320000000    -0.00799398 
C210     C      0.862550000000     0.334210000000     0.965280000000    -0.00782938 
C211     C      0.818580000000     0.360930000000     0.044110000000    -0.00732876 
C212     C      0.821600000000     0.312030000000     0.980040000000    -0.00828036 
C213     C      0.651260000000     0.188640000000     0.973210000000    -0.00785438 
C214     C      0.699130000000     0.190300000000     0.038330000000    -0.00822329 
C215     C      0.625950000000     0.151730000000     0.993070000000    -0.00754781 
C216     C      0.675470000000     0.151910000000     0.056460000000    -0.00587956 
H1       H      0.074990000000     0.198140000000     0.344330000000     0.0379184  
H2       H      0.008420000000     0.199000000000     0.286130000000     0.0307078  
H3       H      0.965170000000     0.139230000000     0.304880000000     0.0350044  
H4       H      0.064120000000     0.225620000000     0.393890000000     0.0334063  
H5       H      0.061750000000     0.146160000000     0.401730000000     0.0325647  
H6       H      0.011500000000     0.171300000000     0.414540000000     0.0365287  
H7       H      0.959420000000     0.220680000000     0.305900000000     0.0345435  
H8       H      0.949370000000     0.162930000000     0.354550000000     0.0336391  
H9       H      0.014090000000     0.411340000000     0.196290000000     0.0334981  
H10      H      0.944830000000     0.355530000000     0.191530000000     0.0381549  
H11      H      0.957920000000     0.300130000000     0.137700000000     0.0336496  
H12      H      0.061430000000     0.388760000000     0.218880000000     0.0363483  
H13      H      0.058530000000     0.392540000000     0.137000000000     0.0359252  
H14      H      0.071020000000     0.341760000000     0.159650000000     0.0326475  
H15      H      0.953620000000     0.305150000000     0.217660000000     0.0344193  
H16      H      0.007050000000     0.284990000000     0.163910000000     0.0328231  
H17      H      0.955640000000     0.506280000000     0.299540000000     0.0350729  
H18      H      0.041060000000     0.511500000000     0.301190000000     0.0345768  
H19      H      0.069370000000     0.552810000000     0.362310000000     0.0383816  
H20      H      0.931030000000     0.478040000000     0.342910000000     0.0380587  
H21      H      0.932430000000     0.559410000000     0.349560000000     0.0376359  
H22      H      0.952930000000     0.530260000000     0.394420000000     0.0340951  
H23      H      0.068680000000     0.479240000000     0.339660000000     0.0388654  
H24      H      0.037880000000     0.521710000000     0.398740000000     0.0351305  
H25      H      0.011890000000     0.859670000000     0.282390000000     0.0363081  
H26      H      0.955590000000     0.863890000000     0.348550000000     0.0338465  
H27      H      0.976310000000     0.810700000000     0.399990000000     0.0394807  
H28      H      0.061270000000     0.888320000000     0.290080000000     0.0330279  
H29      H      0.069050000000     0.808830000000     0.298840000000     0.0336998  
H30      H      0.083580000000     0.838420000000     0.346250000000     0.0374015  
H31      H      0.973470000000     0.891410000000     0.395520000000     0.0346635  
H32      H      0.025760000000     0.837370000000     0.410670000000     0.0365351  
H33      H      0.997680000000     0.610930000000     0.176710000000     0.0412013  
H34      H      0.939530000000     0.676240000000     0.163200000000     0.0335431  
H35      H      0.957750000000     0.724110000000     0.218830000000     0.0366183  
H36      H      0.046370000000     0.615460000000     0.146190000000     0.0367009  
H37      H      0.058550000000     0.632250000000     0.222220000000     0.0349097  
H38      H      0.068150000000     0.678040000000     0.188680000000     0.0367436  
H39      H      0.960750000000     0.721060000000     0.135280000000     0.0381319  
H40      H      0.005920000000     0.740180000000     0.192940000000     0.0296184  
H41      H      0.964120000000     0.287540000000     0.513580000000     0.0350698  
H42      H      0.047230000000     0.288910000000     0.515450000000     0.0337756  
H43      H      0.073610000000     0.351150000000     0.476870000000     0.0382655  
H44      H      0.935320000000     0.321230000000     0.549860000000     0.0379123  
H45      H      0.935770000000     0.349500000000     0.475510000000     0.0380218  
H46      H      0.961300000000     0.384910000000     0.512600000000     0.0359802  
H47      H      0.073080000000     0.324480000000     0.552280000000     0.037943   
H48      H      0.046560000000     0.386370000000     0.513090000000     0.0347535  
H49      H      0.005570000000     0.293750000000     0.842610000000     0.0345687  
H50      H      0.942420000000     0.352570000000     0.841360000000     0.0366772  
H51      H      0.965360000000     0.414590000000     0.882830000000     0.0356299  
H52      H      0.050070000000     0.302920000000     0.807710000000     0.0353636  
H53      H      0.064990000000     0.320530000000     0.884990000000     0.0354696  
H54      H      0.071630000000     0.364760000000     0.849220000000     0.0346312  
H55      H      0.950160000000     0.396590000000     0.805060000000     0.0346295  
H56      H      0.010260000000     0.423000000000     0.847550000000     0.0329596  
H57      H      0.933900000000     0.181440000000     0.707910000000     0.0369361  
H58      H      0.001110000000     0.189410000000     0.760070000000     0.0316199  
H59      H      0.045560000000     0.131370000000     0.741020000000     0.0356363  
H60      H      0.936560000000     0.210280000000     0.657870000000     0.035299   
H61      H      0.946370000000     0.132690000000     0.647330000000     0.0330391  
H62      H      0.993110000000     0.162330000000     0.631670000000     0.0393461  
H63      H      0.047700000000     0.214000000000     0.738120000000     0.0352733  
H64      H      0.061340000000     0.155580000000     0.691740000000     0.0329675  
H65      H      0.970590000000     0.628790000000     0.519730000000     0.0360427  
H66      H      0.055590000000     0.629720000000     0.524980000000     0.0339348  
H67      H      0.081070000000     0.686640000000     0.479480000000     0.0381917  
H68      H      0.941700000000     0.665330000000     0.553090000000     0.0381656  
H69      H      0.943390000000     0.689250000000     0.478120000000     0.0382091  
H70      H      0.970300000000     0.726020000000     0.512850000000     0.0350101  
H71      H      0.079230000000     0.669630000000     0.558480000000     0.0381611  
H72      H      0.055190000000     0.726200000000     0.511760000000     0.0343024  
H73      H      0.964710000000     0.505650000000     0.721140000000     0.0357727  
H74      H      0.050380000000     0.509780000000     0.727570000000     0.0342805  
H75      H      0.078020000000     0.463160000000     0.672640000000     0.0377941  
H76      H      0.939690000000     0.540400000000     0.683070000000     0.0382708  
H77      H      0.941360000000     0.467460000000     0.655940000000     0.0382533  
H78      H      0.973780000000     0.501700000000     0.623480000000     0.0358508  
H79      H      0.077250000000     0.542450000000     0.688980000000     0.0380888  
H80      H      0.057030000000     0.496130000000     0.630690000000     0.0335827  
H81      H      0.066000000000     0.851090000000     0.669550000000     0.0336007  
H82      H      0.000560000000     0.847310000000     0.613790000000     0.0332581  
H83      H      0.946520000000     0.796760000000     0.639070000000     0.0350268  
H84      H      0.056680000000     0.879190000000     0.718560000000     0.0350565  
H85      H      0.053730000000     0.798730000000     0.724460000000     0.036028   
H86      H      0.007030000000     0.825880000000     0.742990000000     0.0341755  
H87      H      0.953110000000     0.876270000000     0.628770000000     0.0333525  
H88      H      0.939030000000     0.826650000000     0.687770000000     0.0378842  
H89      H      0.945580000000     0.664630000000     0.852160000000     0.036513   
H90      H      0.008110000000     0.722750000000     0.853130000000     0.0361053  
H91      H      0.070920000000     0.692560000000     0.887730000000     0.0328375  
H92      H      0.949130000000     0.624080000000     0.811350000000     0.0349931  
H93      H      0.971480000000     0.598600000000     0.885210000000     0.0333093  
H94      H      0.012930000000     0.593750000000     0.845260000000     0.0332319  
H95      H      0.049430000000     0.717390000000     0.813650000000     0.0344028  
H96      H      0.074680000000     0.652070000000     0.847240000000     0.0356043  
H97      H      0.846170000000     0.994270000000     0.278750000000     0.038988   
H98      H      0.853230000000     0.937150000000     0.341860000000     0.0370823  
H99      H      0.895170000000     0.966150000000     0.401620000000     0.0331892  
H100     H      0.810480000000     0.038040000000     0.287600000000     0.0341087  
H101     H      0.889490000000     0.054990000000     0.297320000000     0.0343362  
H102     H      0.856360000000     0.067030000000     0.342500000000     0.0344819  
H103     H      0.818760000000     0.944820000000     0.387640000000     0.0338593  
H104     H      0.857990000000     0.009510000000     0.408060000000     0.0328704  
H105     H      0.598310000000     0.000410000000     0.185760000000     0.0318287  
H106     H      0.649960000000     0.067240000000     0.183860000000     0.034055   
H107     H      0.716320000000     0.051930000000     0.221590000000     0.0360885  
H108     H      0.610530000000     0.957430000000     0.149360000000     0.0320916  
H109     H      0.632510000000     0.943740000000     0.226870000000     0.0353689  
H110     H      0.675750000000     0.940380000000     0.188930000000     0.0371137  
H111     H      0.693070000000     0.066290000000     0.145880000000     0.0320728  
H112     H      0.728080000000     0.009210000000     0.185490000000     0.0361553  
H113     H      0.527000000000     0.051690000000     0.397170000000     0.0337105  
H114     H      0.520660000000     0.968740000000     0.398040000000     0.0358293  
H115     H      0.483010000000     0.942180000000     0.334470000000     0.0382826  
H116     H      0.564780000000     0.075520000000     0.361250000000     0.0380625  
H117     H      0.489100000000     0.079350000000     0.335090000000     0.0381675  
H118     H      0.524170000000     0.051780000000     0.299090000000     0.0347179  
H119     H      0.555990000000     0.938520000000     0.364510000000     0.0380876  
H120     H      0.521420000000     0.966950000000     0.299890000000     0.035254   
H121     H      0.168790000000     0.952640000000     0.332390000000     0.0340081  
H122     H      0.179070000000     0.006550000000     0.401460000000     0.037522   
H123     H      0.230610000000     0.063880000000     0.386280000000     0.0345017  
H124     H      0.144310000000     0.976230000000     0.286510000000     0.0368071  
H125     H      0.226820000000     0.970460000000     0.286790000000     0.0357747  
H126     H      0.204090000000     0.020720000000     0.272940000000     0.0295494  
H127     H      0.151860000000     0.056890000000     0.396480000000     0.0334713  
H128     H      0.201140000000     0.079140000000     0.339070000000     0.0375769  
H129     H      0.351980000000     0.952070000000     0.158480000000     0.035562   
H130     H      0.290590000000     0.014040000000     0.158520000000     0.0354923  
H131     H      0.313490000000     0.072820000000     0.204660000000     0.0339106  
H132     H      0.398910000000     0.963110000000     0.127650000000     0.0379032  
H133     H      0.407680000000     0.973710000000     0.207490000000     0.0351199  
H134     H      0.419680000000     0.019650000000     0.175650000000     0.030925   
H135     H      0.302050000000     0.059680000000     0.125480000000     0.0353281  
H136     H      0.360790000000     0.081010000000     0.172600000000     0.0360866  
H137     H      0.311100000000     0.050880000000     0.509240000000     0.0350288  
H138     H      0.305460000000     0.963060000000     0.511830000000     0.0355846  
H139     H      0.355490000000     0.938330000000     0.459180000000     0.0379686  
H140     H      0.352870000000     0.073770000000     0.541260000000     0.0383113  
H141     H      0.371670000000     0.074320000000     0.465360000000     0.0384382  
H142     H      0.407560000000     0.041640000000     0.495820000000     0.0343217  
H143     H      0.347680000000     0.937140000000     0.540380000000     0.0379426  
H144     H      0.400200000000     0.958440000000     0.488780000000     0.0341541  
H145     H      0.269180000000     0.997180000000     0.833220000000     0.0351295  
H146     H      0.322040000000     0.064290000000     0.836140000000     0.0352963  
H147     H      0.391040000000     0.045950000000     0.869630000000     0.0349554  
H148     H      0.282670000000     0.955510000000     0.796390000000     0.0343866  
H149     H      0.302360000000     0.941930000000     0.875020000000     0.0353722  
H150     H      0.345160000000     0.936810000000     0.837220000000     0.0352585  
H151     H      0.364250000000     0.065430000000     0.796720000000     0.0348202  
H152     H      0.399100000000     0.003820000000     0.831090000000     0.036353   
H153     H      0.160210000000     0.995360000000     0.718990000000     0.0402036  
H154     H      0.146490000000     0.068590000000     0.665360000000     0.0321335  
H155     H      0.207170000000     0.062890000000     0.621120000000     0.0367162  
H156     H      0.131430000000     0.949200000000     0.700320000000     0.0310188  
H157     H      0.207910000000     0.942210000000     0.685630000000     0.0366769  
H158     H      0.177980000000     0.945310000000     0.636270000000     0.0375718  
H159     H      0.123550000000     0.054390000000     0.615050000000     0.0340266  
H160     H      0.185630000000     0.019010000000     0.591910000000     0.03188    
H161     H      0.639720000000     0.043110000000     0.520370000000     0.0349595  
H162     H      0.640420000000     0.957040000000     0.523450000000     0.0358891  
H163     H      0.701210000000     0.931580000000     0.482020000000     0.0377067  
H164     H      0.676430000000     0.070220000000     0.555000000000     0.0384446  
H165     H      0.701080000000     0.068750000000     0.479410000000     0.0375619  
H166     H      0.737420000000     0.042370000000     0.515150000000     0.0333403  
H167     H      0.678590000000     0.933170000000     0.558940000000     0.0378938  
H168     H      0.737870000000     0.959260000000     0.516180000000     0.0342543  
H169     H      0.511110000000     0.969910000000     0.636540000000     0.0365503  
H170     H      0.515120000000     0.056130000000     0.637310000000     0.0342028  
H171     H      0.461490000000     0.080110000000     0.687320000000     0.0379719  
H172     H      0.539620000000     0.942630000000     0.678170000000     0.0383142  
H173     H      0.462560000000     0.943010000000     0.691930000000     0.0380384  
H174     H      0.491360000000     0.971360000000     0.732660000000     0.0351372  
H175     H      0.542100000000     0.079610000000     0.682130000000     0.0379295  
H176     H      0.488220000000     0.055260000000     0.731550000000     0.0331175  
H177     H      0.828160000000     0.007040000000     0.629880000000     0.0361439  
H178     H      0.827810000000     0.941560000000     0.687110000000     0.0377244  
H179     H      0.876250000000     0.959250000000     0.745980000000     0.0331552  
H180     H      0.797550000000     0.053070000000     0.644140000000     0.0374206  
H181     H      0.876630000000     0.061900000000     0.655290000000     0.0335913  
H182     H      0.845500000000     0.069000000000     0.703050000000     0.0339999  
H183     H      0.796360000000     0.950090000000     0.734730000000     0.0367506  
H184     H      0.845010000000     0.005680000000     0.759480000000     0.0321701  
H185     H      0.608170000000     0.003360000000     0.845890000000     0.0314814  
H186     H      0.665450000000     0.068490000000     0.847180000000     0.0360318  
H187     H      0.725240000000     0.049650000000     0.894210000000     0.0344274  
H188     H      0.622550000000     0.957810000000     0.814580000000     0.0358394  
H189     H      0.633210000000     0.948560000000     0.894380000000     0.0354041  
H190     H      0.680420000000     0.940540000000     0.862940000000     0.0352087  
H191     H      0.712500000000     0.060920000000     0.814820000000     0.0353616  
H192     H      0.737610000000     0.003700000000     0.861790000000     0.0359908  
H193     H      0.342730000000     0.852720000000     0.073110000000     0.0328367  
H194     H      0.404440000000     0.841610000000     0.011510000000     0.0373585  
H195     H      0.381730000000     0.794550000000     0.952390000000     0.035691   
H196     H      0.295080000000     0.878250000000     0.055020000000     0.0373022  
H197     H      0.295740000000     0.795340000000     0.059030000000     0.0366892  
H198     H      0.275340000000     0.819660000000     0.011540000000     0.0328423  
H199     H      0.395840000000     0.870960000000     0.962510000000     0.0359659  
H200     H      0.333840000000     0.825610000000     0.944930000000     0.0368529  
H201     H      0.170310000000     0.656730000000     0.076890000000     0.0344393  
H202     H      0.168890000000     0.723580000000     0.021980000000     0.0365304  
H203     H      0.210970000000     0.708180000000     0.957160000000     0.0330714  
H204     H      0.140230000000     0.610810000000     0.061230000000     0.0350765  
H205     H      0.220740000000     0.606470000000     0.048210000000     0.0349458  
H206     H      0.187760000000     0.596580000000     0.002370000000     0.0350378  
H207     H      0.133730000000     0.718230000000     0.976490000000     0.034191   
H208     H      0.178910000000     0.661630000000     0.946330000000     0.0364602  
H209     H      0.517590000000     0.731050000000     0.966060000000     0.0334809  
H210     H      0.519570000000     0.733270000000     0.049390000000     0.0341486  
H211     H      0.470010000000     0.680930000000     0.076430000000     0.0381702  
H212     H      0.549330000000     0.691950000000     0.938860000000     0.0378806  
H213     H      0.472790000000     0.673640000000     0.938790000000     0.03816    
H214     H      0.504120000000     0.634530000000     0.966500000000     0.0362667  
H215     H      0.549610000000     0.693120000000     0.076990000000     0.0380385  
H216     H      0.500650000000     0.637890000000     0.054670000000     0.0349107  
H217     H      0.622110000000     0.842770000000     0.017090000000     0.0383135  
H218     H      0.682760000000     0.852450000000     0.083400000000     0.0329892  
H219     H      0.729920000000     0.796300000000     0.066340000000     0.0369957  
H220     H      0.632140000000     0.876440000000     0.971330000000     0.0338778  
H221     H      0.649910000000     0.802220000000     0.954990000000     0.0362949  
H222     H      0.697220000000     0.835040000000     0.954060000000     0.0370734  
H223     H      0.729730000000     0.880010000000     0.066820000000     0.0366626  
H224     H      0.751760000000     0.824050000000     0.021510000000     0.0330382  
H225     H      0.851260000000     0.586530000000     0.999190000000     0.0367143  
H226     H      0.858550000000     0.642750000000     0.936360000000     0.0331206  
H227     H      0.806730000000     0.697420000000     0.948690000000     0.0375602  
H228     H      0.880310000000     0.597710000000     0.047910000000     0.0356114  
H229     H      0.801460000000     0.611030000000     0.054580000000     0.0350551  
H230     H      0.833160000000     0.657900000000     0.064110000000     0.0374875  
H231     H      0.887800000000     0.690480000000     0.947330000000     0.0363466  
H232     H      0.833720000000     0.715610000000     0.995730000000     0.0352205  
H233     H      0.387390000000     0.504520000000     0.046020000000     0.0348774  
H234     H      0.387820000000     0.504850000000     0.961300000000     0.0351956  
H235     H      0.326480000000     0.465380000000     0.933000000000     0.0381948  
H236     H      0.349800000000     0.538550000000     0.072690000000     0.0380714  
H237     H      0.327220000000     0.462240000000     0.071300000000     0.0377755  
H238     H      0.289850000000     0.497160000000     0.045420000000     0.0340469  
H239     H      0.351650000000     0.540120000000     0.934370000000     0.0381954  
H240     H      0.290200000000     0.499730000000     0.960930000000     0.0345083  
H241     H      0.171440000000     0.278000000000     0.008110000000     0.0344863  
H242     H      0.169600000000     0.335590000000     0.944070000000     0.0358549  
H243     H      0.136290000000     0.402830000000     0.967350000000     0.0349507  
H244     H      0.207920000000     0.288250000000     0.051140000000     0.0359255  
H245     H      0.129900000000     0.307680000000     0.065860000000     0.0347881  
H246     H      0.167820000000     0.349710000000     0.073700000000     0.0337705  
H247     H      0.209040000000     0.377390000000     0.946620000000     0.0360005  
H248     H      0.174340000000     0.407610000000     0.010630000000     0.0365645  
H249     H      0.347860000000     0.151310000000     0.925060000000     0.0325985  
H250     H      0.409600000000     0.160050000000     0.985560000000     0.0374128  
H251     H      0.388910000000     0.208710000000     0.043900000000     0.034884   
H252     H      0.299790000000     0.125840000000     0.942220000000     0.0364647  
H253     H      0.300220000000     0.208210000000     0.939810000000     0.0365014  
H254     H      0.280820000000     0.183590000000     0.987570000000     0.0332207  
H255     H      0.400780000000     0.131170000000     0.034780000000     0.0366895  
H256     H      0.340920000000     0.178460000000     0.053530000000     0.0376813  
H257     H      0.715360000000     0.494780000000     0.962650000000     0.0355212  
H258     H      0.709280000000     0.495800000000     0.049990000000     0.0347681  
H259     H      0.652580000000     0.544270000000     0.072010000000     0.0382602  
H260     H      0.674130000000     0.466190000000     0.935030000000     0.0380162  
H261     H      0.664140000000     0.545410000000     0.934450000000     0.0381671  
H262     H      0.620230000000     0.516710000000     0.957390000000     0.0342725  
H263     H      0.665650000000     0.466480000000     0.072600000000     0.0383706  
H264     H      0.613820000000     0.515150000000     0.041490000000     0.0349293  
H265     H      0.492870000000     0.388300000000     0.042390000000     0.034891   
H266     H      0.493720000000     0.387210000000     0.957130000000     0.0346226  
H267     H      0.544530000000     0.334270000000     0.932910000000     0.0383003  
H268     H      0.462990000000     0.347430000000     0.069070000000     0.038379   
H269     H      0.541190000000     0.334720000000     0.070860000000     0.0380946  
H270     H      0.512420000000     0.292830000000     0.044480000000     0.0351368  
H271     H      0.465430000000     0.344880000000     0.931040000000     0.0380138  
H272     H      0.515130000000     0.292200000000     0.958080000000     0.0345249  
H273     H      0.853780000000     0.357390000000     0.939880000000     0.0337557  
H274     H      0.844090000000     0.412180000000     0.005730000000     0.0371225  
H275     H      0.797150000000     0.383130000000     0.061640000000     0.0358584  
H276     H      0.884320000000     0.310460000000     0.950450000000     0.0374413  
H277     H      0.803000000000     0.301690000000     0.951570000000     0.0371948  
H278     H      0.830880000000     0.282840000000     0.997830000000     0.0341656  
H279     H      0.874490000000     0.400350000000     0.053410000000     0.0362239  
H280     H      0.830710000000     0.336850000000     0.067180000000     0.0366894  
H281     H      0.728160000000     0.178540000000     0.021650000000     0.0354107  
H282     H      0.675830000000     0.175270000000     0.951330000000     0.0367088  
H283     H      0.613190000000     0.131030000000     0.967160000000     0.0330572  
H284     H      0.709930000000     0.211020000000     0.065080000000     0.0366218  
H285     H      0.698000000000     0.131690000000     0.075020000000     0.0334897  
H286     H      0.650900000000     0.163810000000     0.079180000000     0.0335461  
H287     H      0.629160000000     0.208710000000     0.953980000000     0.0355493  
H288     H      0.598680000000     0.165070000000     0.011460000000     0.0365168  
N1       N      0.012070000000     0.138980000000     0.355210000000    -0.182039   
N2       N      0.014120000000     0.227100000000     0.347020000000    -0.181989   
N3       N      0.009200000000     0.344980000000     0.133520000000    -0.181809   
N4       N      0.004690000000     0.350380000000     0.222480000000    -0.18144    
N5       N      0.000710000000     0.560870000000     0.358170000000    -0.181416   
N6       N      0.999580000000     0.473870000000     0.338950000000    -0.176242   
N7       N      0.024470000000     0.806380000000     0.350910000000    -0.179877   
N8       N      0.015500000000     0.893260000000     0.340920000000    -0.183114   
N9       N      0.011000000000     0.681350000000     0.224540000000    -0.181101   
N10      N      0.000140000000     0.665150000000     0.136620000000    -0.179262   
N11      N      0.004710000000     0.353080000000     0.471860000000    -0.181184   
N12      N      0.004200000000     0.321920000000     0.555640000000    -0.181415   
N13      N      0.016180000000     0.368820000000     0.887200000000    -0.182694   
N14      N      0.997970000000     0.347720000000     0.803270000000    -0.179791   
N15      N      0.000130000000     0.128190000000     0.689670000000    -0.181264   
N16      N      0.991090000000     0.216030000000     0.699140000000    -0.178985   
N17      N      0.012430000000     0.690110000000     0.474210000000    -0.180816   
N18      N      0.010450000000     0.665090000000     0.560370000000    -0.180954   
N19      N      0.009850000000     0.460630000000     0.663100000000    -0.180978   
N20      N      0.008440000000     0.545940000000     0.689170000000    -0.180745   
N21      N      0.997860000000     0.793860000000     0.684470000000    -0.177748   
N22      N      0.006150000000     0.881460000000     0.671790000000    -0.181149   
N23      N      0.022740000000     0.643820000000     0.889350000000    -0.182488   
N24      N      0.997410000000     0.672690000000     0.809520000000    -0.179027   
N25      N      0.895500000000     0.013400000000     0.351860000000    -0.182471   
N26      N      0.811490000000     0.989630000000     0.336320000000    -0.178081   
N27      N      0.677150000000     0.995640000000     0.227500000000    -0.178178   
N28      N      0.650270000000     0.012760000000     0.144530000000    -0.183014   
N29      N      0.481720000000     0.011050000000     0.332000000000    -0.180862   
N30      N      0.564940000000     0.006790000000     0.364220000000    -0.181135   
N31      N      0.232880000000     0.020020000000     0.333760000000    -0.180561   
N32      N      0.143980000000     0.013690000000     0.344070000000    -0.180466   
N33      N      0.361740000000     0.024690000000     0.209470000000    -0.182345   
N34      N      0.347870000000     0.008950000000     0.123060000000    -0.180525   
N35      N      0.364750000000     0.006260000000     0.457510000000    -0.18099    
N36      N      0.345530000000     0.005460000000     0.545370000000    -0.181145   
N37      N      0.349270000000     0.991970000000     0.875190000000    -0.178467   
N38      N      0.321300000000     0.012050000000     0.793420000000    -0.182155   
N39      N      0.211970000000     0.001570000000     0.651240000000    -0.181683   
N40      N      0.123700000000     0.005730000000     0.662960000000    -0.183025   
N41      N      0.702270000000     0.000130000000     0.476070000000    -0.184236   
N42      N      0.673830000000     0.001660000000     0.561300000000    -0.180295   
N43      N      0.457250000000     0.011640000000     0.690630000000    -0.181523   
N44      N      0.545700000000     0.011280000000     0.677150000000    -0.181009   
N45      N      0.879640000000     0.011290000000     0.701750000000    -0.183858   
N46      N      0.793390000000     0.999420000000     0.687180000000    -0.175423   
N47      N      0.680840000000     0.997890000000     0.897800000000    -0.174647   
N48      N      0.665100000000     0.011640000000     0.810970000000    -0.181226   
N49      N      0.335290000000     0.790900000000     0.002980000000    -0.180006   
N50      N      0.348080000000     0.878610000000     0.011270000000    -0.179188   
N51      N      0.219090000000     0.655770000000     0.000360000000    -0.180317   
N52      N      0.133520000000     0.666270000000     0.021320000000    -0.17979    
N53      N      0.466900000000     0.672780000000     0.007840000000    -0.179374   
N54      N      0.554170000000     0.692920000000     0.008010000000    -0.17978    
N55      N      0.692670000000     0.795240000000     0.008530000000    -0.179543   
N56      N      0.676810000000     0.881760000000     0.023220000000    -0.179503   
N57      N      0.800340000000     0.658170000000     0.004900000000    -0.179702   
N58      N      0.887710000000     0.643020000000     0.997070000000    -0.179905   
N59      N      0.325200000000     0.459350000000     0.002130000000    -0.180451   
N60      N      0.352540000000     0.543790000000     0.003640000000    -0.18014    
N61      N      0.130200000000     0.357350000000     0.018370000000    -0.180609   
N62      N      0.211620000000     0.330490000000     0.996920000000    -0.180691   
N63      N      0.340980000000     0.212370000000     0.995030000000    -0.179939   
N64      N      0.352310000000     0.124500000000     0.986570000000    -0.179307   
N65      N      0.657250000000     0.549650000000     0.003150000000    -0.179006   
N66      N      0.673680000000     0.461560000000     0.003970000000    -0.178864   
N67      N      0.547610000000     0.331690000000     0.002040000000    -0.179426   
N68      N      0.459450000000     0.347980000000     0.999880000000    -0.17945    
N69      N      0.796280000000     0.339130000000     0.008920000000    -0.179624   
N70      N      0.883150000000     0.357620000000     0.000500000000    -0.179161   
N71      N      0.653890000000     0.128080000000     0.022230000000    -0.1802     
N72      N      0.672620000000     0.213370000000     0.007100000000    -0.179447   
O1       O      0.733480000000     0.333960000000     0.971420000000    -0.552127   
O2       O      0.612240000000     0.338030000000     0.968010000000    -0.555305   
O3       O      0.674800000000     0.397100000000     0.968850000000    -0.551973   
O4       O      0.669920000000     0.276230000000     0.970400000000    -0.554429   
O5       O      0.675260000000     0.277590000000     0.041690000000    -0.555224   
O6       O      0.668190000000     0.398150000000     0.039920000000    -0.557796   
O7       O      0.610800000000     0.334430000000     0.039310000000    -0.557259   
O8       O      0.731580000000     0.342100000000     0.042420000000    -0.558861   
O9       O      0.275100000000     0.327130000000     0.033090000000    -0.556021   
O10      O      0.395380000000     0.341610000000     0.034790000000    -0.558838   
O11      O      0.328420000000     0.394530000000     0.035930000000    -0.557505   
O12      O      0.342840000000     0.274820000000     0.032130000000    -0.559008   
O13      O      0.335990000000     0.276690000000     0.960950000000    -0.555489   
O14      O      0.333900000000     0.397290000000     0.964780000000    -0.560243   
O15      O      0.396260000000     0.338950000000     0.963440000000    -0.556589   
O16      O      0.275250000000     0.336740000000     0.962210000000    -0.560649   
O17      O      0.681720000000     0.733250000000     0.972290000000    -0.561118   
O18      O      0.670200000000     0.613260000000     0.969220000000    -0.556831   
O19      O      0.616350000000     0.679660000000     0.971770000000    -0.56027    
O20      O      0.736840000000     0.668230000000     0.970070000000    -0.557343   
O21      O      0.736940000000     0.659310000000     0.041020000000    -0.554739   
O22      O      0.618010000000     0.683030000000     0.043070000000    -0.552733   
O23      O      0.665940000000     0.612060000000     0.040480000000    -0.55282    
O24      O      0.689860000000     0.730850000000     0.043270000000    -0.54902    
O25      O      0.282970000000     0.666860000000     0.966740000000    -0.556611   
O26      O      0.404080000000     0.668870000000     0.970410000000    -0.560273   
O27      O      0.345330000000     0.607380000000     0.968400000000    -0.561315   
O28      O      0.343100000000     0.727620000000     0.968420000000    -0.563574   
O29      O      0.333420000000     0.727320000000     0.039260000000    -0.550632   
O30      O      0.348460000000     0.607210000000     0.039750000000    -0.555692   
O31      O      0.401590000000     0.673920000000     0.041590000000    -0.553483   
O32      O      0.281390000000     0.658850000000     0.037820000000    -0.556221   
O33      O      0.728040000000     0.967880000000     0.693610000000    -0.554464   
O34      O      0.607910000000     0.973660000000     0.682560000000    -0.559385   
O35      O      0.672750000000     0.968390000000     0.627100000000    -0.549743   
O36      O      0.662200000000     0.973820000000     0.748430000000    -0.552037   
O37      O      0.672890000000     0.043950000000     0.745630000000    -0.553152   
O38      O      0.671140000000     0.039210000000     0.624140000000    -0.55685    
O39      O      0.610850000000     0.044460000000     0.684630000000    -0.552921   
O40      O      0.731890000000     0.038080000000     0.683470000000    -0.556563   
O41      O      0.273450000000     0.040780000000     0.659320000000    -0.552133   
O42      O      0.393660000000     0.045460000000     0.677030000000    -0.555153   
O43      O      0.341610000000     0.041720000000     0.608650000000    -0.562677   
O44      O      0.326450000000     0.045200000000     0.728670000000    -0.559236   
O45      O      0.326750000000     0.974180000000     0.731180000000    -0.554046   
O46      O      0.343040000000     0.970850000000     0.610400000000    -0.551973   
O47      O      0.395290000000     0.974620000000     0.679330000000    -0.560186   
O48      O      0.276040000000     0.969940000000     0.663350000000    -0.564166   
O49      O      0.354060000000     0.055340000000     0.275400000000    -0.5544     
O50      O      0.362290000000     0.046010000000     0.396180000000    -0.559621   
O51      O      0.418830000000     0.048890000000     0.332210000000    -0.553039   
O52      O      0.297820000000     0.052400000000     0.340610000000    -0.554368   
O53      O      0.295460000000     0.982640000000     0.327480000000    -0.548762   
O54      O      0.416540000000     0.978030000000     0.332770000000    -0.55469    
O55      O      0.354430000000     0.975710000000     0.391320000000    -0.551345   
O56      O      0.359770000000     0.984710000000     0.270230000000    -0.555345   
O57      O      0.750930000000     0.029160000000     0.342670000000    -0.562478   
O58      O      0.631040000000     0.037640000000     0.357230000000    -0.557431   
O59      O      0.697940000000     0.034330000000     0.411060000000    -0.560599   
O60      O      0.685040000000     0.032020000000     0.290220000000    -0.563073   
O61      O      0.678840000000     0.961280000000     0.292270000000    -0.55467    
O62      O      0.692690000000     0.963650000000     0.413200000000    -0.55901    
O63      O      0.626070000000     0.966940000000     0.359250000000    -0.554589   
O64      O      0.746470000000     0.958350000000     0.347170000000    -0.554788   
O65      O      0.965000000000     0.668590000000     0.743960000000    -0.557282   
O66      O      0.971730000000     0.666950000000     0.622590000000    -0.558213   
O67      O      0.971070000000     0.608290000000     0.684500000000    -0.559523   
O68      O      0.965390000000     0.728690000000     0.681010000000    -0.557263   
O69      O      0.036420000000     0.732120000000     0.686180000000    -0.557154   
O70      O      0.042000000000     0.611210000000     0.689180000000    -0.551263   
O71      O      0.042710000000     0.669900000000     0.626380000000    -0.554261   
O72      O      0.036000000000     0.674290000000     0.747680000000    -0.560861   
O73      O      0.961000000000     0.280840000000     0.685860000000    -0.561218   
O74      O      0.970380000000     0.399800000000     0.669910000000    -0.560833   
O75      O      0.967250000000     0.332130000000     0.618100000000    -0.558806   
O76      O      0.964210000000     0.349120000000     0.738400000000    -0.55927    
O77      O      0.035090000000     0.341620000000     0.741010000000    -0.564739   
O78      O      0.038230000000     0.327540000000     0.620590000000    -0.556767   
O79      O      0.041290000000     0.395140000000     0.673410000000    -0.552551   
O80      O      0.032020000000     0.275520000000     0.689680000000    -0.558124   
O81      O      0.045940000000     0.675000000000     0.288490000000    -0.557023   
O82      O      0.047880000000     0.685710000000     0.409750000000    -0.554228   
O83      O      0.041190000000     0.621150000000     0.354340000000    -0.564302   
O84      O      0.053010000000     0.740230000000     0.343360000000    -0.559937   
O85      O      0.982550000000     0.747270000000     0.351920000000    -0.555453   
O86      O      0.970480000000     0.627110000000     0.349250000000    -0.550495   
O87      O      0.976740000000     0.686560000000     0.410310000000    -0.55589    
O88      O      0.976170000000     0.689350000000     0.288720000000    -0.549721   
O89      O      0.969790000000     0.345820000000     0.286200000000    -0.55922    
O90      O      0.969730000000     0.349690000000     0.407340000000    -0.556242   
O91      O      0.966300000000     0.408620000000     0.344470000000    -0.549002   
O92      O      0.973950000000     0.287760000000     0.347230000000    -0.552881   
O93      O      0.045090000000     0.292570000000     0.349310000000    -0.562902   
O94      O      0.037350000000     0.412230000000     0.345480000000    -0.567005   
O95      O      0.040760000000     0.353920000000     0.407900000000    -0.559553   
O96      O      0.040830000000     0.352010000000     0.286260000000    -0.557434   
O97      O      0.947240000000     0.322960000000     0.997260000000    -0.551417   
O98      O      0.066700000000     0.321950000000     0.017330000000    -0.554863   
O99      O      0.997820000000     0.316950000000     0.067090000000    -0.549832   
O100     O      0.016950000000     0.328120000000     0.947710000000    -0.556703   
O101     O      0.003270000000     0.397620000000     0.953000000000    -0.556183   
O102     O      0.010580000000     0.386510000000     0.073660000000    -0.556143   
O103     O      0.067060000000     0.392620000000     0.010080000000    -0.553762   
O104     O      0.945940000000     0.391320000000     0.016480000000    -0.55003    
O105     O      0.952620000000     0.614610000000     0.014390000000    -0.552886   
O106     O      0.073390000000     0.624990000000     0.019530000000    -0.553917   
O107     O      0.010850000000     0.625300000000     0.076570000000    -0.558982   
O108     O      0.015140000000     0.613970000000     0.955690000000    -0.554656   
O109     O      0.017200000000     0.684740000000     0.949190000000    -0.556639   
O110     O      0.997940000000     0.694730000000     0.069130000000    -0.543626   
O111     O      0.067130000000     0.695730000000     0.016180000000    -0.556174   
O112     O      0.947930000000     0.683860000000     0.999180000000    -0.553739   
O113     O      0.081440000000     0.015360000000     0.381830000000    -0.555098   
O114     O      0.960240000000     0.012580000000     0.385600000000    -0.554912   
O115     O      0.020180000000     0.954120000000     0.380120000000    -0.558119   
O116     O      0.020670000000     0.074390000000     0.387200000000    -0.558726   
O117     O      0.016640000000     0.078170000000     0.315800000000    -0.559384   
O118     O      0.019650000000     0.957990000000     0.308600000000    -0.557603   
O119     O      0.957930000000     0.017970000000     0.314250000000    -0.553687   
O120     O      0.079230000000     0.017690000000     0.310320000000    -0.554057   
O121     O      0.947390000000     0.000800000000     0.726430000000    -0.55578    
O122     O      0.066600000000     0.001890000000     0.707300000000    -0.565513   
O123     O      0.007960000000     0.062490000000     0.720770000000    -0.551766   
O124     O      0.008440000000     0.941870000000     0.712110000000    -0.553697   
O125     O      0.994790000000     0.947140000000     0.642050000000    -0.549362   
O126     O      0.994660000000     0.067450000000     0.650600000000    -0.559223   
O127     O      0.055520000000     0.009190000000     0.636910000000    -0.559044   
O128     O      0.936020000000     0.008400000000     0.656140000000    -0.563275   
O129     O      0.623030000000     0.002250000000     0.077340000000    -0.553232   
O130     O      0.637980000000     0.998540000000     0.956660000000    -0.550902   
O131     O      0.636120000000     0.941510000000     0.018160000000    -0.556783   
O132     O      0.625030000000     0.061660000000     0.013800000000    -0.552355   
O133     O      0.695150000000     0.068640000000     0.025070000000    -0.557578   
O134     O      0.706310000000     0.948370000000     0.028870000000    -0.548639   
O135     O      0.708160000000     0.008000000000     0.965230000000    -0.550101   
O136     O      0.693290000000     0.011350000000     0.085950000000    -0.559415   
O137     O      0.384410000000     0.002180000000     0.938410000000    -0.558833   
O138     O      0.383620000000     0.999960000000     0.059910000000    -0.550155   
O139     O      0.383260000000     0.940860000000     0.998350000000    -0.555325   
O140     O      0.385320000000     0.061230000000     0.000070000000    -0.557623   
O141     O      0.315310000000     0.061520000000     0.986870000000    -0.548116   
O142     O      0.313140000000     0.942710000000     0.010910000000    -0.545342   
O143     O      0.313730000000     0.013730000000     0.058540000000    -0.550832   
O144     O      0.314150000000     0.990250000000     0.939230000000    -0.549869   
V1       V      0.672770000000     0.336440000000     0.966730000000     1.37599    
V2       V      0.671260000000     0.338050000000     0.043720000000     1.391      
V3       V      0.335370000000     0.334420000000     0.036910000000     1.38924    
V4       V      0.335570000000     0.337320000000     0.959910000000     1.39126    
V5       V      0.676360000000     0.673490000000     0.967950000000     1.39753    
V6       V      0.677690000000     0.671250000000     0.044920000000     1.37062    
V7       V      0.343820000000     0.667660000000     0.965600000000     1.40101    
V8       V      0.341150000000     0.667040000000     0.042580000000     1.37515    
V9       V      0.667660000000     0.968050000000     0.688070000000     1.39196    
V10      V      0.671750000000     0.044340000000     0.684570000000     1.3798     
V11      V      0.333600000000     0.046140000000     0.668370000000     1.38509    
V12      V      0.335560000000     0.969580000000     0.671090000000     1.40213    
V13      V      0.358270000000     0.053570000000     0.336240000000     1.38195    
V14      V      0.356150000000     0.977350000000     0.330320000000     1.38783    
V15      V      0.691350000000     0.036100000000     0.350380000000     1.39139    
V16      V      0.685870000000     0.959700000000     0.352970000000     1.38594    
V17      V      0.965470000000     0.668130000000     0.682920000000     1.39909    
V18      V      0.042150000000     0.671960000000     0.687380000000     1.37667    
V19      V      0.962900000000     0.340690000000     0.678010000000     1.40355    
V20      V      0.039540000000     0.334880000000     0.681090000000     1.38248    
V21      V      0.049900000000     0.680260000000     0.348920000000     1.39403    
V22      V      0.973520000000     0.687740000000     0.349800000000     1.3843     
V23      V      0.967050000000     0.347840000000     0.346540000000     1.38677    
V24      V      0.043830000000     0.352740000000     0.347230000000     1.40328    
V25      V      0.007030000000     0.319340000000     0.007030000000     1.37881    
V26      V      0.006530000000     0.395190000000     0.013650000000     1.37535    
V27      V      0.013250000000     0.616810000000     0.016730000000     1.38029    
V28      V      0.007190000000     0.692700000000     0.008430000000     1.37778    
V29      V      0.020890000000     0.014020000000     0.386550000000     1.38422    
V30      V      0.018430000000     0.018220000000     0.309370000000     1.3845     
V31      V      0.007800000000     0.001650000000     0.719540000000     1.38189    
V32      V      0.994940000000     0.007920000000     0.643530000000     1.39812    
V33      V      0.627680000000     0.000930000000     0.016290000000     1.37725    
V34      V      0.703620000000     0.009140000000     0.026380000000     1.38222    
V35      V      0.387280000000     0.001020000000     0.999210000000     1.38489    
V36      V      0.310890000000     0.002150000000     0.998850000000     1.35937    


