data_structure

_audit_creation_method RASPA-1.0
_audit_creation_date 2023-6-5
_audit_author_name 'Poobodin Mano'

_cell_length_a    33.9205
_cell_length_b    34.139
_cell_length_c    40.1894
_cell_angle_alpha 89.9813
_cell_angle_beta  90.0187
_cell_angle_gamma 119.98
_cell_volume      40312.8

_symmetry_cell_setting          triclinic
_symmetry_space_group_name_Hall 'P 1'
_symmetry_space_group_name_H-M  'P 1'
_symmetry_Int_Tables_number     1

_symmetry_equiv_pos_as_xyz 'x,y,z'

loop_
_atom_site_label
_atom_site_type_symbol
_atom_site_fract_x
_atom_site_fract_y
_atom_site_fract_z
_atom_site_charge
C1       C      0.870400000000     0.673230000000     0.284690000000     0.490558   
C2       C      0.816180000000     0.673610000000     0.401860000000     0.492188   
C3       C      0.760920000000     0.633340000000     0.323360000000     0.489625   
C4       C      0.924420000000     0.712890000000     0.363690000000     0.488087   
C5       C      0.212950000000     0.881010000000     0.333660000000     0.482334   
C6       C      0.159480000000     0.831340000000     0.451890000000     0.489167   
C7       C      0.105310000000     0.810320000000     0.371820000000     0.477493   
C8       C      0.266440000000     0.901570000000     0.415320000000     0.488131   
C9       C      0.552310000000     0.030590000000     0.418080000000     0.467889   
C10      C      0.490290000000     0.023370000000     0.034330000000     0.484896   
C11      C      0.444360000000     0.992820000000     0.451150000000     0.475159   
C12      C      0.602110000000     0.062240000000     0.001490000000     0.472163   
C13      C      0.145020000000     0.325470000000     0.241340000000     0.470644   
C14      C      0.190190000000     0.326820000000     0.120870000000     0.487369   
C15      C      0.247820000000     0.357050000000     0.200590000000     0.490669   
C16      C      0.085290000000     0.294440000000     0.161430000000     0.474045   
C17      C      0.890810000000     0.213890000000     0.997610000000     0.480811   
C18      C      0.839700000000     0.165630000000     0.116520000000     0.488391   
C19      C      0.783050000000     0.146490000000     0.036680000000     0.487373   
C20      C      0.946390000000     0.232640000000     0.077660000000     0.486624   
C21      C      0.533070000000     0.513920000000     0.187280000000     0.47587    
C22      C      0.488410000000     0.470900000000     0.307590000000     0.488762   
C23      C      0.429170000000     0.446140000000     0.228700000000     0.475798   
C24      C      0.593680000000     0.540480000000     0.264540000000     0.474902   
C25      C      0.147840000000     0.330170000000     0.374680000000     0.487089   
C26      C      0.206740000000     0.324460000000     0.489590000000     0.472657   
C27      C      0.217330000000     0.286520000000     0.408530000000     0.481701   
C28      C      0.139510000000     0.368630000000     0.456070000000     0.484736   
C29      C      0.350990000000     0.139180000000     0.400880000000     0.489334   
C30      C      0.350590000000     0.182850000000     0.280560000000     0.47323    
C31      C      0.308070000000     0.202620000000     0.356680000000     0.468565   
C32      C      0.393090000000     0.120850000000     0.324290000000     0.482414   
C33      C      0.025280000000     0.544860000000     0.435610000000     0.487086   
C34      C      0.024880000000     0.492010000000     0.053560000000     0.472019   
C35      C      0.060610000000     0.471370000000     0.474180000000     0.47179    
C36      C      0.989120000000     0.561990000000     0.015770000000     0.472929   
C37      C      0.697000000000     0.869920000000     0.089410000000     0.471249   
C38      C      0.695620000000     0.832640000000     0.211800000000     0.483981   
C39      C      0.730500000000     0.802800000000     0.136480000000     0.486854   
C40      C      0.661640000000     0.900260000000     0.166190000000     0.47271    
C41      C      0.867580000000     0.674490000000     0.151260000000     0.474986   
C42      C      0.853260000000     0.672880000000     0.025940000000     0.476474   
C43      C      0.813850000000     0.712280000000     0.092600000000     0.475183   
C44      C      0.908590000000     0.635670000000     0.083600000000     0.486447   
C45      C      0.558330000000     0.026600000000     0.283990000000     0.485071   
C46      C      0.500950000000     0.025760000000     0.167030000000     0.468385   
C47      C      0.480670000000     0.057150000000     0.249430000000     0.471722   
C48      C      0.575700000000     0.993970000000     0.201200000000     0.486756   
C49      C      0.351720000000     0.168920000000     0.029960000000     0.473014   
C50      C      0.352360000000     0.212280000000     0.150550000000     0.489612   
C51      C      0.396830000000     0.273450000000     0.074070000000     0.485085   
C52      C      0.308190000000     0.107470000000     0.106300000000     0.471856   
C53      C      0.560210000000     0.541340000000     0.058160000000     0.491378   
C54      C      0.518990000000     0.501110000000     0.437100000000     0.474087   
C55      C      0.489950000000     0.437520000000     0.013220000000     0.472726   
C56      C      0.587580000000     0.603290000000     0.483720000000     0.476975   
C57      C      0.201500000000     0.872180000000     0.199510000000     0.472339   
C58      C      0.145990000000     0.813950000000     0.083030000000     0.474056   
C59      C      0.134890000000     0.762060000000     0.161820000000     0.470864   
C60      C      0.213240000000     0.924080000000     0.119810000000     0.48438    
C61      C      0.022910000000     0.482800000000     0.185420000000     0.488471   
C62      C      0.027950000000     0.540620000000     0.302300000000     0.47279    
C63      C      0.061710000000     0.593800000000     0.221000000000     0.484928   
C64      C      0.990330000000     0.434170000000     0.266570000000     0.488868   
C65      C      0.884250000000     0.209870000000     0.363380000000     0.472212   
C66      C      0.826080000000     0.146330000000     0.248350000000     0.4757     
C67      C      0.812690000000     0.099520000000     0.331190000000     0.48875    
C68      C      0.897820000000     0.256540000000     0.281190000000     0.476225   
C69      C      0.698570000000     0.814040000000     0.341980000000     0.474434   
C70      C      0.700970000000     0.878620000000     0.456100000000     0.485523   
C71      C      0.731910000000     0.923770000000     0.372470000000     0.474714   
C72      C      0.668190000000     0.768440000000     0.424110000000     0.487346   
C73      C      0.797790000000     0.989880000000     0.347020000000    -0.0103463  
C74      C      0.720610000000     0.982840000000     0.345290000000    -0.0606986  
C75      C      0.818320000000     0.038320000000     0.358980000000    -0.00492934 
C76      C      0.741990000000     0.033180000000     0.354890000000     0.166418   
C77      C      0.969790000000     0.322710000000     0.260990000000    -0.012775   
C78      C      0.898090000000     0.326630000000     0.265890000000    -0.0629688  
C79      C      0.995100000000     0.366280000000     0.281930000000    -0.00706657 
C80      C      0.922020000000     0.366080000000     0.289960000000     0.171629   
C81      C      0.064630000000     0.691170000000     0.178100000000    -0.011649   
C82      C      0.138250000000     0.692120000000     0.170380000000    -0.0611112  
C83      C      0.054630000000     0.661150000000     0.209020000000    -0.00748908 
C84      C      0.130620000000     0.665560000000     0.202650000000     0.167515   
C85      C      0.593610000000     0.678080000000     0.478680000000    -0.0103596  
C86      C      0.662820000000     0.671150000000     0.471130000000    -0.060558   
C87      C      0.600920000000     0.700610000000     0.445030000000    -0.00443756 
C88      C      0.675030000000     0.700390000000     0.439300000000     0.166676   
C89      C      0.307890000000     0.036630000000     0.120920000000    -0.0124506  
C90      C      0.234940000000     0.038800000000     0.120400000000    -0.062015   
C91      C      0.284340000000     0.991990000000     0.101570000000    -0.00651573 
C92      C      0.211830000000     0.994080000000     0.101030000000     0.167458   
C93      C      0.414080000000     0.370500000000     0.025590000000    -0.0118425  
C94      C      0.484780000000     0.364630000000     0.027420000000    -0.0617272  
C95      C      0.398740000000     0.344980000000     0.058880000000    -0.00771153 
C96      C      0.471830000000     0.343770000000     0.062150000000     0.167852   
C97      C      0.739800000000     0.814570000000     0.291230000000    -0.0128606  
C98      C      0.655680000000     0.770280000000     0.292580000000    -0.0580901  
C99      C      0.738820000000     0.844940000000     0.263560000000    -0.00465761 
C100     C      0.651990000000     0.797980000000     0.263970000000     0.166224   
C101     C      0.742880000000     0.897880000000     0.038440000000    -0.0128038  
C102     C      0.656180000000     0.855410000000     0.036230000000    -0.0608334  
C103     C      0.743390000000     0.921920000000     0.006050000000    -0.00433645 
C104     C      0.659240000000     0.884230000000     0.006030000000     0.167783   
C105     C      0.811230000000     0.783280000000     0.093350000000    -0.0107794  
C106     C      0.739050000000     0.709220000000     0.097190000000    -0.0609055  
C107     C      0.799820000000     0.799010000000     0.125380000000    -0.00518944 
C108     C      0.724420000000     0.726610000000     0.127560000000     0.166413   
C109     C      0.593550000000     0.902060000000     0.185100000000    -0.010831   
C110     C      0.670350000000     0.973220000000     0.186110000000    -0.0587593  
C111     C      0.572690000000     0.929250000000     0.172020000000    -0.00396289 
C112     C      0.647280000000     0.000770000000     0.176140000000     0.169973   
C113     C      0.982400000000     0.524810000000     0.352770000000    -0.0130423  
C114     C      0.069410000000     0.569860000000     0.354610000000    -0.0607799  
C115     C      0.981890000000     0.545800000000     0.386310000000    -0.00462597 
C116     C      0.065890000000     0.593330000000     0.385960000000     0.16815    
C117     C      0.065860000000     0.503020000000     0.106020000000    -0.0113016  
C118     C      0.978660000000     0.459420000000     0.103570000000    -0.0629067  
C119     C      0.062800000000     0.475270000000     0.136690000000    -0.00476653 
C120     C      0.978760000000     0.435770000000     0.136030000000     0.168227   
C121     C      0.994620000000     0.632760000000     0.038220000000    -0.0132915  
C122     C      0.919630000000     0.559350000000     0.037100000000    -0.0627334  
C123     C      0.983530000000     0.640890000000     0.073920000000    -0.00710322 
C124     C      0.913550000000     0.565660000000     0.073960000000     0.169268   
C125     C      0.309430000000     0.138570000000     0.477640000000    -0.0113191  
C126     C      0.395830000000     0.175080000000     0.479640000000    -0.063639   
C127     C      0.308300000000     0.104670000000     0.452120000000    -0.00614949 
C128     C      0.392560000000     0.141500000000     0.453020000000     0.170397   
C129     C      0.395390000000     0.217260000000     0.229960000000    -0.0121764  
C130     C      0.308790000000     0.173130000000     0.228370000000    -0.0608739  
C131     C      0.394750000000     0.247620000000     0.202230000000    -0.00321673 
C132     C      0.310210000000     0.207240000000     0.202880000000     0.167848   
C133     C      0.475990000000     0.122220000000     0.272020000000    -0.0115444  
C134     C      0.406290000000     0.044880000000     0.270610000000    -0.057683   
C135     C      0.466310000000     0.126640000000     0.308570000000    -0.00590758 
C136     C      0.396160000000     0.051000000000     0.306920000000     0.167166   
C137     C      0.051930000000     0.397770000000     0.455630000000    -0.0129651  
C138     C      0.129560000000     0.466760000000     0.460940000000    -0.0634507  
C139     C      0.069630000000     0.369480000000     0.473340000000    -0.00591156 
C140     C      0.145220000000     0.438940000000     0.480960000000     0.169996   
C141     C      0.308520000000     0.274590000000     0.367100000000    -0.0122055  
C142     C      0.234950000000     0.201800000000     0.362740000000    -0.0608543  
C143     C      0.289760000000     0.288780000000     0.396530000000    -0.00695284 
C144     C      0.215750000000     0.214770000000     0.392710000000     0.166426   
C145     C      0.484600000000     0.510700000000     0.385890000000    -0.0123435  
C146     C      0.528760000000     0.468520000000     0.385200000000    -0.0611283  
C147     C      0.453000000000     0.478190000000     0.359240000000    -0.00362309 
C148     C      0.493840000000     0.434890000000     0.360450000000     0.167364   
C149     C      0.564210000000     0.502830000000     0.135060000000    -0.0115826  
C150     C      0.524200000000     0.549240000000     0.136590000000    -0.064332   
C151     C      0.597110000000     0.535860000000     0.109190000000    -0.00542434 
C152     C      0.557590000000     0.580360000000     0.110210000000     0.172286   
C153     C      0.935760000000     0.221130000000     0.410540000000    -0.0129726  
C154     C      0.875580000000     0.244610000000     0.414360000000    -0.0564121  
C155     C      0.921500000000     0.201840000000     0.445720000000     0.00540489 
C156     C      0.896890000000     0.261160000000     0.449010000000     0.167476   
C157     C      0.828160000000     0.106470000000     0.197290000000    -0.00956567 
C158     C      0.781360000000     0.143560000000     0.198910000000    -0.0630797  
C159     C      0.853580000000     0.133770000000     0.166550000000    -0.00552103 
C160     C      0.807460000000     0.174360000000     0.169470000000     0.168725   
C161     C      0.119850000000     0.285540000000     0.294780000000    -0.0111835  
C162     C      0.164890000000     0.371860000000     0.291720000000    -0.0633114  
C163     C      0.098150000000     0.289700000000     0.326960000000    -0.00602573 
C164     C      0.143830000000     0.373250000000     0.325140000000     0.168961   
C165     C      0.203700000000     0.281250000000     0.040010000000    -0.00866021 
C166     C      0.251860000000     0.364690000000     0.039340000000    -0.060296   
C167     C      0.176930000000     0.282920000000     0.069950000000    -0.00590651 
C168     C      0.225610000000     0.369350000000     0.068920000000     0.167661   
C169     C      0.016060000000     0.229400000000     0.138300000000    -0.0111227  
C170     C      0.023520000000     0.306140000000     0.138770000000    -0.0616821  
C171     C      0.011200000000     0.227730000000     0.100490000000    -0.00552735 
C172     C      0.014790000000     0.302590000000     0.100920000000     0.167373   
C173     C      0.361010000000     0.446490000000     0.208110000000    -0.0104629  
C174     C      0.363650000000     0.374290000000     0.207750000000    -0.0577853  
C175     C      0.314950000000     0.422290000000     0.224780000000    -0.00295511 
C176     C      0.313980000000     0.348570000000     0.220450000000     0.168367   
C177     C      0.539050000000     0.985330000000     0.367700000000    -0.0135494  
C178     C      0.579850000000     0.071550000000     0.365310000000    -0.0613384  
C179     C      0.561050000000     0.985750000000     0.334250000000    -0.00482105 
C180     C      0.604570000000     0.069500000000     0.334010000000     0.167861   
C181     C      0.511150000000     0.066340000000     0.114450000000    -0.0114261  
C182     C      0.468200000000     0.979840000000     0.116880000000    -0.0632348  
C183     C      0.483390000000     0.063020000000     0.083500000000    -0.00629958 
C184     C      0.444250000000     0.979570000000     0.084320000000     0.168357   
C185     C      0.669250000000     0.129050000000     0.025420000000    -0.0112675  
C186     C      0.663980000000     0.053290000000     0.026910000000    -0.0607429  
C187     C      0.718110000000     0.150500000000     0.013160000000    -0.00499897 
C188     C      0.714400000000     0.075110000000     0.016510000000     0.16682    
C189     C      0.254920000000     0.885970000000     0.245830000000    -0.0122661  
C190     C      0.192260000000     0.906020000000     0.250740000000    -0.0553033  
C191     C      0.243750000000     0.869010000000     0.281820000000     0.00565195 
C192     C      0.215700000000     0.925690000000     0.284310000000     0.164683   
C193     C      0.147760000000     0.772790000000     0.032850000000    -0.00878851 
C194     C      0.099170000000     0.807900000000     0.033980000000    -0.0603547  
C195     C      0.172900000000     0.799840000000     0.002090000000    -0.00567021 
C196     C      0.124020000000     0.837920000000     0.003840000000     0.167903   
C197     C      0.380300000000     0.998740000000     0.425960000000    -0.0119973  
C198     C      0.380380000000     0.925350000000     0.425730000000    -0.0616172  
C199     C      0.330180000000     0.973300000000     0.437480000000    -0.0072238  
C200     C      0.333610000000     0.901800000000     0.441690000000     0.170153   
C201     C      0.868080000000     0.715220000000     0.473050000000    -0.0115925  
C202     C      0.818220000000     0.629930000000     0.474490000000    -0.0624729  
C203     C      0.830880000000     0.717760000000     0.452790000000    -0.00889131 
C204     C      0.781890000000     0.634320000000     0.455030000000     0.171545   
C205     C      0.890540000000     0.717980000000     0.203540000000    -0.0124979  
C206     C      0.845040000000     0.632070000000     0.203840000000    -0.0611781  
C207     C      0.914290000000     0.716240000000     0.235400000000    -0.00316683 
C208     C      0.872850000000     0.632100000000     0.233860000000     0.168392   
C209     C      0.667360000000     0.545950000000     0.278070000000    -0.0111153  
C210     C      0.661280000000     0.616070000000     0.275150000000    -0.0613926  
C211     C      0.691070000000     0.561110000000     0.311620000000    -0.00506557 
C212     C      0.688640000000     0.633210000000     0.307690000000     0.167089   
C213     C      0.032850000000     0.806400000000     0.356290000000    -0.00852863 
C214     C      0.038610000000     0.736000000000     0.356970000000    -0.0602518  
C215     C      0.992550000000     0.784260000000     0.380030000000    -0.00677044 
C216     C      0.996550000000     0.713090000000     0.379810000000     0.166171   
C217     C      0.870400000000     0.673230000000     0.784690000000     0.490584   
C218     C      0.816180000000     0.673610000000     0.901860000000     0.492186   
C219     C      0.760920000000     0.633340000000     0.823360000000     0.489359   
C220     C      0.924420000000     0.712890000000     0.863690000000     0.488126   
C221     C      0.212950000000     0.881010000000     0.833660000000     0.482334   
C222     C      0.159480000000     0.831340000000     0.951890000000     0.489172   
C223     C      0.105310000000     0.810320000000     0.871820000000     0.477492   
C224     C      0.266440000000     0.901580000000     0.915320000000     0.488115   
C225     C      0.552310000000     0.030590000000     0.918090000000     0.467968   
C226     C      0.490290000000     0.023370000000     0.534330000000     0.484644   
C227     C      0.444360000000     0.992820000000     0.951150000000     0.475219   
C228     C      0.602100000000     0.062240000000     0.501490000000     0.472016   
C229     C      0.145020000000     0.325470000000     0.741340000000     0.470648   
C230     C      0.190190000000     0.326820000000     0.620870000000     0.487273   
C231     C      0.247820000000     0.357050000000     0.700590000000     0.490625   
C232     C      0.085290000000     0.294440000000     0.661430000000     0.474048   
C233     C      0.890810000000     0.213890000000     0.497610000000     0.481003   
C234     C      0.839700000000     0.165630000000     0.616520000000     0.488358   
C235     C      0.783050000000     0.146490000000     0.536680000000     0.487317   
C236     C      0.946380000000     0.232640000000     0.577660000000     0.486679   
C237     C      0.533070000000     0.513930000000     0.687280000000     0.475856   
C238     C      0.488410000000     0.470900000000     0.807590000000     0.488508   
C239     C      0.429170000000     0.446140000000     0.728700000000     0.475793   
C240     C      0.593680000000     0.540480000000     0.764550000000     0.474878   
C241     C      0.147840000000     0.330170000000     0.874680000000     0.487196   
C242     C      0.206740000000     0.324460000000     0.989590000000     0.472688   
C243     C      0.217330000000     0.286520000000     0.908530000000     0.481615   
C244     C      0.139510000000     0.368630000000     0.956060000000     0.484758   
C245     C      0.350990000000     0.139180000000     0.900880000000     0.489303   
C246     C      0.350590000000     0.182850000000     0.780560000000     0.473274   
C247     C      0.308070000000     0.202620000000     0.856680000000     0.468558   
C248     C      0.393080000000     0.120850000000     0.824290000000     0.482489   
C249     C      0.025280000000     0.544860000000     0.935610000000     0.487144   
C250     C      0.024880000000     0.492010000000     0.553560000000     0.472185   
C251     C      0.060610000000     0.471370000000     0.974180000000     0.471743   
C252     C      0.989120000000     0.561990000000     0.515760000000     0.473171   
C253     C      0.697000000000     0.869920000000     0.589410000000     0.471229   
C254     C      0.695620000000     0.832640000000     0.711800000000     0.484038   
C255     C      0.730510000000     0.802800000000     0.636480000000     0.486668   
C256     C      0.661640000000     0.900260000000     0.666190000000     0.472766   
C257     C      0.867570000000     0.674490000000     0.651260000000     0.474905   
C258     C      0.853270000000     0.672880000000     0.525940000000     0.476431   
C259     C      0.813850000000     0.712280000000     0.592600000000     0.474756   
C260     C      0.908590000000     0.635680000000     0.583600000000     0.4865     
C261     C      0.558330000000     0.026600000000     0.783990000000     0.48507    
C262     C      0.500950000000     0.025760000000     0.667030000000     0.468384   
C263     C      0.480670000000     0.057140000000     0.749430000000     0.471777   
C264     C      0.575700000000     0.993970000000     0.701200000000     0.486758   
C265     C      0.351720000000     0.168920000000     0.529970000000     0.473174   
C266     C      0.352360000000     0.212280000000     0.650550000000     0.489578   
C267     C      0.396830000000     0.273450000000     0.574070000000     0.485098   
C268     C      0.308190000000     0.107470000000     0.606300000000     0.471848   
C269     C      0.560210000000     0.541340000000     0.558150000000     0.49151    
C270     C      0.518990000000     0.501110000000     0.937100000000     0.474121   
C271     C      0.489950000000     0.437520000000     0.513220000000     0.473029   
C272     C      0.587580000000     0.603290000000     0.983720000000     0.47698    
C273     C      0.201500000000     0.872180000000     0.699500000000     0.472427   
C274     C      0.145990000000     0.813950000000     0.583030000000     0.474195   
C275     C      0.134890000000     0.762060000000     0.661820000000     0.470803   
C276     C      0.213240000000     0.924080000000     0.619800000000     0.484358   
C277     C      0.022910000000     0.482800000000     0.685420000000     0.488428   
C278     C      0.027950000000     0.540620000000     0.802300000000     0.472767   
C279     C      0.061710000000     0.593800000000     0.721000000000     0.485021   
C280     C      0.990330000000     0.434170000000     0.766570000000     0.488884   
C281     C      0.884250000000     0.209880000000     0.863380000000     0.472196   
C282     C      0.826080000000     0.146330000000     0.748350000000     0.475694   
C283     C      0.812690000000     0.099520000000     0.831190000000     0.488739   
C284     C      0.897820000000     0.256540000000     0.781200000000     0.476505   
C285     C      0.698570000000     0.814040000000     0.841980000000     0.474419   
C286     C      0.700970000000     0.878620000000     0.956100000000     0.48553    
C287     C      0.731910000000     0.923770000000     0.872470000000     0.474612   
C288     C      0.668190000000     0.768440000000     0.924110000000     0.487274   
C289     C      0.797790000000     0.989880000000     0.847020000000    -0.0103846  
C290     C      0.720610000000     0.982840000000     0.845290000000    -0.0606667  
C291     C      0.818320000000     0.038320000000     0.858980000000    -0.00488576 
C292     C      0.741980000000     0.033180000000     0.854890000000     0.166381   
C293     C      0.969790000000     0.322710000000     0.760990000000    -0.0127724  
C294     C      0.898090000000     0.326630000000     0.765890000000    -0.0629756  
C295     C      0.995100000000     0.366280000000     0.781930000000    -0.00706816 
C296     C      0.922020000000     0.366080000000     0.789960000000     0.171632   
C297     C      0.064630000000     0.691170000000     0.678100000000    -0.011708   
C298     C      0.138250000000     0.692120000000     0.670380000000    -0.0610335  
C299     C      0.054630000000     0.661150000000     0.709020000000    -0.00746676 
C300     C      0.130620000000     0.665560000000     0.702650000000     0.167493   
C301     C      0.593610000000     0.678080000000     0.978680000000    -0.0103082  
C302     C      0.662820000000     0.671150000000     0.971130000000    -0.0605972  
C303     C      0.600920000000     0.700620000000     0.945030000000    -0.00448124 
C304     C      0.675030000000     0.700390000000     0.939300000000     0.166675   
C305     C      0.307890000000     0.036630000000     0.620920000000    -0.0124121  
C306     C      0.234940000000     0.038800000000     0.620400000000    -0.0620236  
C307     C      0.284340000000     0.991990000000     0.601570000000    -0.00654131 
C308     C      0.211830000000     0.994080000000     0.601030000000     0.167481   
C309     C      0.414080000000     0.370500000000     0.525590000000    -0.0118584  
C310     C      0.484780000000     0.364630000000     0.527420000000    -0.0616763  
C311     C      0.398740000000     0.344980000000     0.558880000000    -0.00770802 
C312     C      0.471830000000     0.343770000000     0.562150000000     0.167837   
C313     C      0.739800000000     0.814570000000     0.791230000000    -0.0128613  
C314     C      0.655680000000     0.770280000000     0.792580000000    -0.0580728  
C315     C      0.738820000000     0.844940000000     0.763560000000    -0.00465636 
C316     C      0.651990000000     0.797980000000     0.763970000000     0.166221   
C317     C      0.742880000000     0.897880000000     0.538440000000    -0.0127805  
C318     C      0.656180000000     0.855410000000     0.536230000000    -0.0607951  
C319     C      0.743380000000     0.921920000000     0.506050000000    -0.00445706 
C320     C      0.659240000000     0.884230000000     0.506030000000     0.167631   
C321     C      0.811230000000     0.783280000000     0.593350000000    -0.0108293  
C322     C      0.739050000000     0.709220000000     0.597190000000    -0.0608211  
C323     C      0.799820000000     0.799010000000     0.625380000000    -0.00515578 
C324     C      0.724420000000     0.726610000000     0.627560000000     0.166332   
C325     C      0.593550000000     0.902060000000     0.685110000000    -0.0109402  
C326     C      0.670350000000     0.973220000000     0.686110000000    -0.0587368  
C327     C      0.572690000000     0.929250000000     0.672020000000    -0.00392377 
C328     C      0.647280000000     0.000770000000     0.676140000000     0.16998    
C329     C      0.982400000000     0.524810000000     0.852770000000    -0.0130061  
C330     C      0.069410000000     0.569860000000     0.854610000000    -0.0608073  
C331     C      0.981880000000     0.545800000000     0.886310000000    -0.00472352 
C332     C      0.065890000000     0.593330000000     0.885960000000     0.168262   
C333     C      0.065860000000     0.503020000000     0.606020000000    -0.0112991  
C334     C      0.978660000000     0.459420000000     0.603570000000    -0.0628788  
C335     C      0.062800000000     0.475270000000     0.636690000000    -0.004748   
C336     C      0.978760000000     0.435770000000     0.636040000000     0.168316   
C337     C      0.994620000000     0.632760000000     0.538220000000    -0.0132976  
C338     C      0.919630000000     0.559350000000     0.537100000000    -0.0627152  
C339     C      0.983530000000     0.640890000000     0.573920000000    -0.00714066 
C340     C      0.913550000000     0.565660000000     0.573960000000     0.169262   
C341     C      0.309430000000     0.138570000000     0.977630000000    -0.0113431  
C342     C      0.395830000000     0.175080000000     0.979640000000    -0.0636432  
C343     C      0.308300000000     0.104670000000     0.952120000000    -0.00613802 
C344     C      0.392550000000     0.141500000000     0.953020000000     0.170384   
C345     C      0.395390000000     0.217260000000     0.729960000000    -0.0121748  
C346     C      0.308790000000     0.173130000000     0.728370000000    -0.0608989  
C347     C      0.394750000000     0.247620000000     0.702230000000    -0.00321706 
C348     C      0.310210000000     0.207240000000     0.702880000000     0.167856   
C349     C      0.475990000000     0.122220000000     0.772020000000    -0.0115526  
C350     C      0.406290000000     0.044880000000     0.770610000000    -0.0577439  
C351     C      0.466310000000     0.126640000000     0.808570000000    -0.00590469 
C352     C      0.396150000000     0.051000000000     0.806920000000     0.16733    
C353     C      0.051930000000     0.397770000000     0.955630000000    -0.0129361  
C354     C      0.129560000000     0.466760000000     0.960940000000    -0.063428   
C355     C      0.069630000000     0.369480000000     0.973340000000    -0.00603675 
C356     C      0.145220000000     0.438940000000     0.980960000000     0.169886   
C357     C      0.308520000000     0.274590000000     0.867100000000    -0.0122192  
C358     C      0.234950000000     0.201800000000     0.862740000000    -0.0608482  
C359     C      0.289760000000     0.288780000000     0.896530000000    -0.00691366 
C360     C      0.215750000000     0.214770000000     0.892710000000     0.166405   
C361     C      0.484600000000     0.510700000000     0.885890000000    -0.0123369  
C362     C      0.528760000000     0.468520000000     0.885200000000    -0.0610948  
C363     C      0.453000000000     0.478190000000     0.859240000000    -0.00363453 
C364     C      0.493840000000     0.434890000000     0.860450000000     0.167344   
C365     C      0.564210000000     0.502820000000     0.635060000000    -0.0116961  
C366     C      0.524200000000     0.549240000000     0.636590000000    -0.0643651  
C367     C      0.597110000000     0.535860000000     0.609180000000    -0.00532981 
C368     C      0.557590000000     0.580360000000     0.610210000000     0.172345   
C369     C      0.935760000000     0.221130000000     0.910540000000    -0.0129675  
C370     C      0.875580000000     0.244610000000     0.914360000000    -0.0564452  
C371     C      0.921500000000     0.201840000000     0.945720000000     0.00539952 
C372     C      0.896900000000     0.261160000000     0.949010000000     0.167572   
C373     C      0.828160000000     0.106470000000     0.697290000000    -0.00954469 
C374     C      0.781360000000     0.143560000000     0.698900000000    -0.0631525  
C375     C      0.853580000000     0.133770000000     0.666550000000    -0.00557342 
C376     C      0.807460000000     0.174360000000     0.669470000000     0.168817   
C377     C      0.119850000000     0.285540000000     0.794780000000    -0.011183   
C378     C      0.164890000000     0.371860000000     0.791720000000    -0.0633103  
C379     C      0.098150000000     0.289700000000     0.826960000000    -0.00603477 
C380     C      0.143830000000     0.373250000000     0.825140000000     0.168951   
C381     C      0.203700000000     0.281250000000     0.540010000000    -0.0086691  
C382     C      0.251860000000     0.364690000000     0.539340000000    -0.0603123  
C383     C      0.176930000000     0.282920000000     0.569950000000    -0.00590638 
C384     C      0.225610000000     0.369350000000     0.568920000000     0.167635   
C385     C      0.016060000000     0.229400000000     0.638300000000    -0.0111162  
C386     C      0.023520000000     0.306140000000     0.638770000000    -0.0616774  
C387     C      0.011200000000     0.227730000000     0.600490000000    -0.00553166 
C388     C      0.014790000000     0.302590000000     0.600920000000     0.16736    
C389     C      0.361010000000     0.446490000000     0.708110000000    -0.0104716  
C390     C      0.363650000000     0.374290000000     0.707750000000    -0.05779    
C391     C      0.314950000000     0.422290000000     0.724780000000    -0.00294053 
C392     C      0.313980000000     0.348570000000     0.720450000000     0.16837    
C393     C      0.539050000000     0.985330000000     0.867700000000    -0.0135626  
C394     C      0.579850000000     0.071550000000     0.865310000000    -0.0613501  
C395     C      0.561050000000     0.985750000000     0.834250000000    -0.0048183  
C396     C      0.604570000000     0.069500000000     0.834010000000     0.167862   
C397     C      0.511150000000     0.066340000000     0.614450000000    -0.0114366  
C398     C      0.468200000000     0.979840000000     0.616880000000    -0.0632223  
C399     C      0.483390000000     0.063020000000     0.583500000000    -0.00630282 
C400     C      0.444250000000     0.979570000000     0.584320000000     0.168318   
C401     C      0.669250000000     0.129050000000     0.525420000000    -0.0112837  
C402     C      0.663980000000     0.053290000000     0.526910000000    -0.0607632  
C403     C      0.718110000000     0.150500000000     0.513160000000    -0.00510462 
C404     C      0.714400000000     0.075110000000     0.516510000000     0.166831   
C405     C      0.254920000000     0.885970000000     0.745830000000    -0.012273   
C406     C      0.192260000000     0.906020000000     0.750740000000    -0.0553078  
C407     C      0.243750000000     0.869010000000     0.781820000000     0.00564729 
C408     C      0.215700000000     0.925690000000     0.784310000000     0.164683   
C409     C      0.147760000000     0.772790000000     0.532850000000    -0.00872566 
C410     C      0.099170000000     0.807900000000     0.533980000000    -0.0602811  
C411     C      0.172900000000     0.799840000000     0.502090000000    -0.00585822 
C412     C      0.124020000000     0.837920000000     0.503840000000     0.167746   
C413     C      0.380300000000     0.998740000000     0.925960000000    -0.0119922  
C414     C      0.380380000000     0.925350000000     0.925730000000    -0.0615822  
C415     C      0.330180000000     0.973300000000     0.937480000000    -0.00723488 
C416     C      0.333610000000     0.901800000000     0.941690000000     0.17009    
C417     C      0.868080000000     0.715210000000     0.973050000000    -0.0115748  
C418     C      0.818220000000     0.629930000000     0.974480000000    -0.0624836  
C419     C      0.830880000000     0.717760000000     0.952790000000    -0.00890725 
C420     C      0.781890000000     0.634320000000     0.955030000000     0.171555   
C421     C      0.890540000000     0.717980000000     0.703540000000    -0.0125055  
C422     C      0.845040000000     0.632070000000     0.703840000000    -0.061196   
C423     C      0.914290000000     0.716240000000     0.735400000000    -0.00316203 
C424     C      0.872850000000     0.632100000000     0.733860000000     0.168431   
C425     C      0.667360000000     0.545950000000     0.778070000000    -0.0111117  
C426     C      0.661280000000     0.616070000000     0.775150000000    -0.0613943  
C427     C      0.691070000000     0.561110000000     0.811620000000    -0.00507819 
C428     C      0.688640000000     0.633210000000     0.807690000000     0.167083   
C429     C      0.032850000000     0.806400000000     0.856290000000    -0.00849342 
C430     C      0.038610000000     0.736000000000     0.856970000000    -0.0602853  
C431     C      0.992550000000     0.784260000000     0.880030000000    -0.00677941 
C432     C      0.996550000000     0.713090000000     0.879810000000     0.166139   
H1       H      0.817460000000     0.038090000000     0.386660000000     0.0342701  
H2       H      0.818070000000     0.975200000000     0.357170000000     0.0387968  
H3       H      0.738920000000     0.035160000000     0.382410000000     0.0011005  
H4       H      0.685660000000     0.963890000000     0.355810000000     0.0555833  
H5       H      0.854660000000     0.057390000000     0.351410000000     0.0381391  
H6       H      0.800490000000     0.990170000000     0.319430000000     0.0370437  
H7       H      0.717670000000     0.980010000000     0.317720000000     0.0596421  
H8       H      0.689630000000     0.041670000000     0.351650000000     0.136876   
H9       H      0.995810000000     0.356400000000     0.308200000000     0.0372698  
H10      H      0.985150000000     0.301090000000     0.265610000000     0.0426118  
H11      H      0.919820000000     0.351960000000     0.315420000000     0.000510032
H12      H      0.861060000000     0.307320000000     0.271470000000     0.0572059  
H13      H      0.030840000000     0.386250000000     0.273070000000     0.0415278  
H14      H      0.974890000000     0.332490000000     0.234270000000     0.0395318  
H15      H      0.902150000000     0.340210000000     0.240160000000     0.0617229  
H16      H      0.873080000000     0.376340000000     0.304030000000     0.132898   
H17      H      0.064190000000     0.683280000000     0.231340000000     0.0360491  
H18      H      0.049330000000     0.713070000000     0.181570000000     0.0417753  
H19      H      0.146240000000     0.690190000000     0.223530000000    -0.000346312
H20      H      0.175490000000     0.714130000000     0.166550000000     0.0553917  
H21      H      0.017330000000     0.637480000000     0.210410000000     0.043469   
H22      H      0.047560000000     0.668830000000     0.156380000000     0.0379366  
H23      H      0.124830000000     0.667790000000     0.149280000000     0.056746   
H24      H      0.184490000000     0.659310000000     0.205500000000     0.132779   
H25      H      0.582930000000     0.674150000000     0.425750000000     0.0363239  
H26      H      0.556660000000     0.659950000000     0.484560000000     0.0438697  
H27      H      0.663900000000     0.676930000000     0.417550000000     0.00217065 
H28      H      0.675180000000     0.646650000000     0.468610000000     0.0579674  
H29      H      0.585140000000     0.722370000000     0.445780000000     0.0419035  
H30      H      0.611260000000     0.704760000000     0.497870000000     0.0420306  
H31      H      0.681140000000     0.693720000000     0.492490000000     0.0597552  
H32      H      0.735780000000     0.710910000000     0.429800000000     0.144342   
H33      H      0.290010000000     0.999890000000     0.074550000000     0.036181   
H34      H      0.344400000000     0.055510000000     0.113740000000     0.0419632  
H35      H      0.216400000000     0.002580000000     0.073960000000    -0.00102362 
H36      H      0.219280000000     0.059410000000     0.113140000000     0.0572398  
H37      H      0.300850000000     0.971950000000     0.108200000000     0.0413118  
H38      H      0.305990000000     0.028680000000     0.147910000000     0.0403096  
H39      H      0.228220000000     0.031010000000     0.147380000000     0.0588718  
H40      H      0.150430000000     0.983730000000     0.095200000000     0.131762   
H41      H      0.408510000000     0.370480000000     0.079060000000     0.0382303  
H42      H      0.401150000000     0.394590000000     0.523790000000     0.0423376  
H43      H      0.485300000000     0.371920000000     0.080670000000    -0.000316584
H44      H      0.522480000000     0.383740000000     0.025180000000     0.0556644  
H45      H      0.361010000000     0.324020000000     0.059010000000     0.0435635  
H46      H      0.398000000000     0.345370000000     0.505210000000     0.0373892  
H47      H      0.471300000000     0.336900000000     0.008710000000     0.0568859  
H48      H      0.523800000000     0.337440000000     0.074570000000     0.132214   
H49      H      0.742870000000     0.876420000000     0.274990000000     0.0366831  
H50      H      0.771100000000     0.834000000000     0.306430000000     0.0387411  
H51      H      0.645420000000     0.824160000000     0.275040000000     0.00167464 
H52      H      0.625240000000     0.757320000000     0.308930000000     0.0515066  
H53      H      0.768560000000     0.854630000000     0.246980000000     0.0370747  
H54      H      0.740900000000     0.785570000000     0.279580000000     0.0409535  
H55      H      0.656200000000     0.740510000000     0.281810000000     0.0546672  
H56      H      0.587060000000     0.765060000000     0.254460000000     0.131942   
H57      H      0.746220000000     0.954830000000     0.012810000000     0.031942   
H58      H      0.771240000000     0.922210000000     0.054550000000     0.0394564  
H59      H      0.662450000000     0.916530000000     0.015320000000    -0.001682   
H60      H      0.626340000000     0.849320000000     0.051600000000     0.0532001  
H61      H      0.774170000000     0.929580000000     0.991330000000     0.0371242  
H62      H      0.750030000000     0.870310000000     0.032160000000     0.0392844  
H63      H      0.650440000000     0.822050000000     0.027460000000     0.0617837  
H64      H      0.595710000000     0.865140000000     0.997690000000     0.131567   
H65      H      0.813980000000     0.789160000000     0.146680000000     0.0355044  
H66      H      0.848810000000     0.800340000000     0.090590000000     0.0394672  
H67      H      0.733590000000     0.714220000000     0.150360000000     0.00109226 
H68      H      0.724570000000     0.672070000000     0.099430000000     0.0569532  
H69      H      0.817120000000     0.836540000000     0.124810000000     0.0385204  
H70      H      0.797710000000     0.793890000000     0.072070000000     0.0375148  
H71      H      0.724390000000     0.715580000000     0.074440000000     0.0597978  
H72      H      0.662830000000     0.677430000000     0.135400000000     0.137439   
H73      H      0.575090000000     0.930160000000     0.144390000000     0.033769   
H74      H      0.574050000000     0.867280000000     0.174780000000     0.0413658  
H75      H      0.650320000000     0.004660000000     0.148500000000    -0.000251966
H76      H      0.704730000000     0.989080000000     0.174580000000     0.0610198  
H77      H      0.535920000000     0.911520000000     0.178450000000     0.0379314  
H78      H      0.589610000000     0.899480000000     0.212630000000     0.0398623  
H79      H      0.675060000000     0.975290000000     0.213570000000     0.0629841  
H80      H      0.671910000000     0.065800000000     0.175440000000     0.149556   
H81      H      0.978060000000     0.575750000000     0.381280000000     0.0340013  
H82      H      0.954310000000     0.522660000000     0.337140000000     0.0451112  
H83      H      0.061680000000     0.622430000000     0.378150000000    -0.00206129 
H84      H      0.098360000000     0.594910000000     0.339210000000     0.0520918  
H85      H      0.951530000000     0.521430000000     0.400810000000     0.0389477  
H86      H      0.974640000000     0.489510000000     0.357260000000     0.0416714  
H87      H      0.076920000000     0.542820000000     0.361940000000     0.0624966  
H88      H      0.129070000000     0.638050000000     0.394680000000     0.131323   
H89      H      0.061330000000     0.443470000000     0.128380000000     0.0309641  
H90      H      0.095330000000     0.508010000000     0.090660000000     0.0371772  
H91      H      0.978660000000     0.404050000000     0.129090000000     0.000970333
H92      H      0.951170000000     0.434380000000     0.087180000000     0.0536526  
H93      H      0.094060000000     0.494700000000     0.151910000000     0.0394868  
H94      H      0.072570000000     0.536940000000     0.114190000000     0.0436631  
H95      H      0.969980000000     0.486060000000     0.109470000000     0.0589745  
H96      H      0.914010000000     0.397500000000     0.144430000000     0.13419    
H97      H      0.000680000000     0.629030000000     0.091530000000     0.0357756  
H98      H      0.031990000000     0.647240000000     0.035730000000     0.0423747  
H99      H      0.933060000000     0.553190000000     0.088640000000     0.000508388
H100     H      0.902970000000     0.522580000000     0.031620000000     0.0563769  
H101     H      0.998150000000     0.677770000000     0.078090000000     0.0421502  
H102     H      0.984490000000     0.651550000000     0.020860000000     0.0399336  
H103     H      0.902210000000     0.573630000000     0.522090000000     0.0583095  
H104     H      0.859690000000     0.508820000000     0.085560000000     0.133064   
H105     H      0.305530000000     0.074970000000     0.465670000000     0.0340128  
H106     H      0.278890000000     0.120990000000     0.493870000000     0.0374343  
H107     H      0.389370000000     0.111210000000     0.466130000000    -0.0020487  
H108     H      0.424090000000     0.181870000000     0.496990000000     0.0560003  
H109     H      0.277740000000     0.092910000000     0.436040000000     0.0358691  
H110     H      0.307530000000     0.166050000000     0.464180000000     0.0396303  
H111     H      0.404730000000     0.207620000000     0.467270000000     0.0606767  
H112     H      0.456020000000     0.159320000000     0.445980000000     0.130713   
H113     H      0.396540000000     0.277950000000     0.214030000000     0.0348394  
H114     H      0.424260000000     0.237950000000     0.247010000000     0.0393612  
H115     H      0.312000000000     0.236400000000     0.216740000000     0.00485234 
H116     H      0.278650000000     0.162240000000     0.244790000000     0.0517333  
H117     H      0.425440000000     0.259520000000     0.186280000000     0.0374079  
H118     H      0.402130000000     0.191550000000     0.218480000000     0.0390595  
H119     H      0.304820000000     0.142820000000     0.215020000000     0.0603487  
H120     H      0.246220000000     0.187350000000     0.196070000000     0.133188   
H121     H      0.483820000000     0.113010000000     0.324180000000     0.0373302  
H122     H      0.513390000000     0.141450000000     0.267930000000     0.0424343  
H123     H      0.413070000000     0.036670000000     0.322640000000     0.000759442
H124     H      0.393960000000     0.008490000000     0.265840000000     0.0642968  
H125     H      0.481330000000     0.163070000000     0.314690000000     0.0417182  
H126     H      0.460410000000     0.137850000000     0.256430000000     0.0372644  
H127     H      0.386720000000     0.055210000000     0.254130000000     0.0620752  
H128     H      0.344480000000     0.018890000000     0.336450000000     0.148511   
H129     H      0.061090000000     0.367600000000     0.500230000000     0.0413827  
H130     H      0.015470000000     0.383740000000     0.962010000000     0.0517856  
H131     H      0.136310000000     0.439950000000     0.507580000000    -0.000624463
H132     H      0.148490000000     0.502490000000     0.469450000000     0.0584903  
H133     H      0.051540000000     0.334520000000     0.463160000000     0.0485478  
H134     H      0.054140000000     0.393900000000     0.428340000000     0.043353   
H135     H      0.138140000000     0.466110000000     0.434310000000     0.0625271  
H136     H      0.206890000000     0.483960000000     0.493590000000     0.132608   
H137     H      0.301840000000     0.280680000000     0.419870000000     0.0349666  
H138     H      0.345890000000     0.289670000000     0.370290000000     0.0426177  
H139     H      0.221940000000     0.200020000000     0.415560000000    -0.00123186 
H140     H      0.219250000000     0.164380000000     0.362230000000     0.0538251  
H141     H      0.304880000000     0.326110000000     0.395710000000     0.0415703  
H142     H      0.302790000000     0.289020000000     0.344020000000     0.0385957  
H143     H      0.224530000000     0.212070000000     0.339570000000     0.0563612  
H144     H      0.153610000000     0.164470000000     0.395280000000     0.132548   
H145     H      0.423210000000     0.450070000000     0.372030000000     0.0323979  
H146     H      0.464470000000     0.519900000000     0.402700000000     0.0395258  
H147     H      0.464770000000     0.408020000000     0.374900000000    -0.00124743 
H148     H      0.540080000000     0.449990000000     0.401860000000     0.0534305  
H149     H      0.439970000000     0.495730000000     0.343140000000     0.0368833  
H150     H      0.510250000000     0.542280000000     0.373340000000     0.0389551  
H151     H      0.558960000000     0.494300000000     0.371230000000     0.0595248  
H152     H      0.514180000000     0.391260000000     0.354790000000     0.131352   
H153     H      0.626660000000     0.563700000000     0.122400000000     0.0325834  
H154     H      0.583220000000     0.491600000000     0.151350000000     0.0383083  
H155     H      0.587700000000     0.607700000000     0.123460000000    -0.00124171 
H156     H      0.515900000000     0.569710000000     0.153680000000     0.0559277  
H157     H      0.609860000000     0.517970000000     0.093220000000     0.0365917  
H158     H      0.537200000000     0.472570000000     0.121970000000     0.0394271  
H159     H      0.492050000000     0.524460000000     0.124040000000     0.0605125  
H160     H      0.538230000000     0.624620000000     0.103610000000     0.135567   
H161     H      0.894980000000     0.165500000000     0.443910000000     0.0382088  
H162     H      0.944560000000     0.198700000000     0.396200000000     0.0388835  
H163     H      0.873300000000     0.268300000000     0.463740000000     0.000663615
H164     H      0.839260000000     0.218150000000     0.417560000000     0.0509889  
H165     H      0.951110000000     0.203370000000     0.458860000000     0.0325525  
H166     H      0.966960000000     0.254940000000     0.411980000000     0.0514927  
H167     H      0.875690000000     0.272760000000     0.400320000000     0.0481981  
H168     H      0.932860000000     0.326080000000     0.442150000000     0.13497    
H169     H      0.887590000000     0.161360000000     0.174610000000     0.0341739  
H170     H      0.850600000000     0.097960000000     0.212060000000     0.0377585  
H171     H      0.834620000000     0.207480000000     0.179430000000     0.00310506 
H172     H      0.768160000000     0.160900000000     0.215030000000     0.058609   
H173     H      0.859610000000     0.111440000000     0.149720000000     0.0381191  
H174     H      0.798570000000     0.074140000000     0.188690000000     0.038234   
H175     H      0.751940000000     0.112360000000     0.188890000000     0.0683888  
H176     H      0.773210000000     0.205000000000     0.160700000000     0.136034   
H177     H      0.067090000000     0.291290000000     0.320470000000     0.0339216  
H178     H      0.093750000000     0.256200000000     0.280310000000     0.035527   
H179     H      0.112040000000     0.374180000000     0.319590000000    -0.00192172 
H180     H      0.167580000000     0.399750000000     0.275800000000     0.0530279  
H181     H      0.087640000000     0.258930000000     0.342300000000     0.040361   
H182     H      0.147550000000     0.278430000000     0.301230000000     0.0426001  
H183     H      0.200170000000     0.378780000000     0.296230000000     0.0588515  
H184     H      0.172090000000     0.437920000000     0.333020000000     0.133772   
H185     H      0.143870000000     0.278270000000     0.060890000000     0.035761   
H186     H      0.181840000000     0.250870000000     0.024680000000     0.036793   
H187     H      0.199750000000     0.377420000000     0.058980000000     0.0042582  
H188     H      0.265330000000     0.395440000000     0.023490000000     0.05576    
H189     H      0.168980000000     0.253630000000     0.086330000000     0.0384942  
H190     H      0.232680000000     0.277850000000     0.049450000000     0.0335903  
H191     H      0.281240000000     0.362220000000     0.049130000000     0.057265   
H192     H      0.261800000000     0.433420000000     0.079270000000     0.136508   
H193     H      0.045760000000     0.243230000000     0.089250000000     0.0343454  
H194     H      0.031790000000     0.209040000000     0.145990000000     0.0387241  
H195     H      0.048640000000     0.318570000000     0.088330000000     0.00175884 
H196     H      0.046040000000     0.342120000000     0.145850000000     0.0559607  
H197     H      0.992040000000     0.191840000000     0.092410000000     0.0380189  
H198     H      0.981490000000     0.213710000000     0.149540000000     0.0355956  
H199     H      0.990380000000     0.293870000000     0.151670000000     0.0580088  
H200     H      0.015010000000     0.358670000000     0.092060000000     0.136713   
H201     H      0.320180000000     0.423370000000     0.252170000000     0.034321   
H202     H      0.378830000000     0.482550000000     0.215860000000     0.0407948  
H203     H      0.315830000000     0.345390000000     0.248000000000    -0.00246026 
H204     H      0.382370000000     0.357970000000     0.218000000000     0.0602896  
H205     H      0.296610000000     0.440950000000     0.219490000000     0.039589   
H206     H      0.355860000000     0.445490000000     0.180710000000     0.0423864  
H207     H      0.363280000000     0.371190000000     0.180180000000     0.0635699  
H208     H      0.273350000000     0.283450000000     0.222970000000     0.143513   
H209     H      0.592360000000     0.984050000000     0.339540000000     0.0323431  
H210     H      0.538480000000     0.958340000000     0.383560000000     0.0395892  
H211     H      0.635220000000     0.067900000000     0.342030000000     0.000921457
H212     H      0.603860000000     0.101280000000     0.380490000000     0.051829   
H213     H      0.537760000000     0.954850000000     0.319910000000     0.0381858  
H214     H      0.502970000000     0.975600000000     0.363000000000     0.0381053  
H215     H      0.551190000000     0.076710000000     0.357790000000     0.0605984  
H216     H      0.646410000000     0.133070000000     0.324930000000     0.131524   
H217     H      0.451290000000     0.061500000000     0.091600000000     0.0327448  
H218     H      0.515690000000     0.095490000000     0.129730000000     0.0365793  
H219     H      0.412140000000     0.979090000000     0.091250000000    -0.00332177 
H220     H      0.443170000000     0.952350000000     0.133230000000     0.0520342  
H221     H      0.502980000000     0.094080000000     0.068290000000     0.0375315  
H222     H      0.545520000000     0.073480000000     0.106470000000     0.0409603  
H223     H      0.495330000000     0.971640000000     0.111020000000     0.0581267  
H224     H      0.406280000000     0.915090000000     0.076170000000     0.130877   
H225     H      0.717680000000     0.150630000000     0.985490000000     0.0338485  
H226     H      0.653680000000     0.148530000000     0.015360000000     0.0398066  
H227     H      0.715640000000     0.071660000000     0.988970000000     0.000845678
H228     H      0.645170000000     0.018360000000     0.516740000000     0.0564302  
H229     H      0.736730000000     0.186340000000     0.021430000000     0.0401308  
H230     H      0.669790000000     0.131840000000     0.053010000000     0.0397367  
H231     H      0.662020000000     0.050710000000     0.054530000000     0.0601691  
H232     H      0.724620000000     0.024000000000     0.519410000000     0.136392   
H233     H      0.218610000000     0.832150000000     0.281500000000     0.0388679  
H234     H      0.263670000000     0.863300000000     0.231770000000     0.0384936  
H235     H      0.192370000000     0.932800000000     0.299400000000     0.000764002
H236     H      0.156860000000     0.878350000000     0.255520000000     0.0503359  
H237     H      0.274910000000     0.873130000000     0.294210000000     0.0358208  
H238     H      0.285450000000     0.920340000000     0.245590000000     0.0534905  
H239     H      0.189500000000     0.932310000000     0.236220000000     0.0498001  
H240     H      0.249160000000     0.990210000000     0.275130000000     0.137097   
H241     H      0.206670000000     0.827970000000     0.010050000000     0.038027   
H242     H      0.170490000000     0.764920000000     0.047860000000     0.0370373  
H243     H      0.149860000000     0.872100000000     0.013090000000     0.00374758 
H244     H      0.085920000000     0.825380000000     0.049920000000     0.0527384  
H245     H      0.179480000000     0.777570000000     0.985600000000     0.0418606  
H246     H      0.118440000000     0.740150000000     0.024440000000     0.03459    
H247     H      0.069710000000     0.775780000000     0.024910000000     0.0563019  
H248     H      0.086620000000     0.864820000000     0.993730000000     0.135351   
H249     H      0.329560000000     0.977670000000     0.464850000000     0.0368815  
H250     H      0.397500000000     0.033420000000     0.436630000000     0.0441329  
H251     H      0.338160000000     0.906660000000     0.469200000000     0.00212737 
H252     H      0.399340000000     0.907980000000     0.933130000000     0.0575489  
H253     H      0.312060000000     0.989300000000     0.425680000000     0.0427709  
H254     H      0.380750000000     0.001890000000     0.398400000000     0.0379347  
H255     H      0.376210000000     0.922450000000     0.398210000000     0.0574145  
H256     H      0.323080000000     0.841230000000     0.950310000000     0.133041   
H257     H      0.807830000000     0.721840000000     0.470340000000     0.0378731  
H258     H      0.885550000000     0.745650000000     0.489190000000     0.0394797  
H259     H      0.759680000000     0.638900000000     0.473270000000    -0.00117711 
H260     H      0.801660000000     0.600120000000     0.491280000000     0.0556897  
H261     H      0.846890000000     0.747880000000     0.436220000000     0.0389485  
H262     H      0.893580000000     0.715620000000     0.455450000000     0.0398737  
H263     H      0.839480000000     0.623700000000     0.456580000000     0.0632971  
H264     H      0.733300000000     0.571880000000     0.451150000000     0.130783   
H265     H      0.946780000000     0.718000000000     0.228160000000     0.0324541  
H266     H      0.915160000000     0.746980000000     0.188090000000     0.0381199  
H267     H      0.904470000000     0.633350000000     0.224540000000     0.000217849
H268     H      0.837000000000     0.602220000000     0.188020000000     0.0555478  
H269     H      0.923090000000     0.746460000000     0.250970000000     0.0365002  
H270     H      0.862780000000     0.724710000000     0.210600000000     0.0393432  
H271     H      0.812380000000     0.628580000000     0.212740000000     0.0606802  
H272     H      0.849610000000     0.567990000000     0.241320000000     0.134082   
H273     H      0.664750000000     0.547440000000     0.331510000000     0.0388455  
H274     H      0.647900000000     0.508380000000     0.277450000000     0.0430897  
H275     H      0.663730000000     0.623180000000     0.328560000000     0.00185382 
H276     H      0.636900000000     0.628780000000     0.273440000000     0.0570099  
H277     H      0.713040000000     0.545820000000     0.314930000000     0.0449537  
H278     H      0.693730000000     0.557840000000     0.258240000000     0.0400758  
H279     H      0.685360000000     0.630760000000     0.253910000000     0.0589721  
H280     H      0.695210000000     0.692950000000     0.311930000000     0.137809   
H281     H      0.005830000000     0.791870000000     0.405950000000     0.0400353  
H282     H      0.051510000000     0.843570000000     0.360310000000     0.0397363  
H283     H      0.008770000000     0.719100000000     0.406110000000     0.00423604 
H284     H      0.061470000000     0.722230000000     0.362520000000     0.0573275  
H285     H      0.970630000000     0.799560000000     0.376530000000     0.0389407  
H286     H      0.019550000000     0.800030000000     0.330380000000     0.036608   
H287     H      0.027040000000     0.727410000000     0.330730000000     0.0579838  
H288     H      0.988460000000     0.652990000000     0.385160000000     0.136644   
H289     H      0.817460000000     0.038090000000     0.886660000000     0.0342561  
H290     H      0.818070000000     0.975200000000     0.857170000000     0.0387999  
H291     H      0.738920000000     0.035160000000     0.882410000000     0.00109819 
H292     H      0.685660000000     0.963890000000     0.855810000000     0.0555701  
H293     H      0.854670000000     0.057390000000     0.851410000000     0.0381177  
H294     H      0.800490000000     0.990170000000     0.819430000000     0.0370515  
H295     H      0.717670000000     0.980010000000     0.817720000000     0.0596348  
H296     H      0.689630000000     0.041670000000     0.851650000000     0.136954   
H297     H      0.995810000000     0.356400000000     0.808200000000     0.0372614  
H298     H      0.985150000000     0.301090000000     0.765610000000     0.0426096  
H299     H      0.919820000000     0.351960000000     0.815420000000     0.000499256
H300     H      0.861060000000     0.307320000000     0.771470000000     0.0572     
H301     H      0.030840000000     0.386250000000     0.773070000000     0.0415289  
H302     H      0.974890000000     0.332490000000     0.734270000000     0.0395366  
H303     H      0.902140000000     0.340200000000     0.740160000000     0.0617262  
H304     H      0.873080000000     0.376340000000     0.804030000000     0.132896   
H305     H      0.064190000000     0.683280000000     0.731340000000     0.0360412  
H306     H      0.049330000000     0.713070000000     0.681570000000     0.0417893  
H307     H      0.146240000000     0.690190000000     0.723530000000    -0.000344172
H308     H      0.175490000000     0.714130000000     0.666550000000     0.055371   
H309     H      0.017330000000     0.637480000000     0.710410000000     0.0434569  
H310     H      0.047560000000     0.668830000000     0.656380000000     0.0379521  
H311     H      0.124830000000     0.667780000000     0.649280000000     0.0567194  
H312     H      0.184490000000     0.659310000000     0.705500000000     0.132775   
H313     H      0.582930000000     0.674160000000     0.925750000000     0.0363292  
H314     H      0.556660000000     0.659950000000     0.984560000000     0.0438411  
H315     H      0.663900000000     0.676930000000     0.917550000000     0.00216826 
H316     H      0.675180000000     0.646650000000     0.968610000000     0.0579695  
H317     H      0.585140000000     0.722370000000     0.945780000000     0.0419057  
H318     H      0.611260000000     0.704760000000     0.997880000000     0.0419926  
H319     H      0.681140000000     0.693720000000     0.992480000000     0.0597608  
H320     H      0.735780000000     0.710910000000     0.929800000000     0.144343   
H321     H      0.290010000000     0.999890000000     0.574550000000     0.0361712  
H322     H      0.344410000000     0.055510000000     0.613740000000     0.0419405  
H323     H      0.216400000000     0.002580000000     0.573960000000    -0.00105111 
H324     H      0.219280000000     0.059410000000     0.613140000000     0.057234   
H325     H      0.300850000000     0.971960000000     0.608200000000     0.0413153  
H326     H      0.305990000000     0.028680000000     0.647910000000     0.0403046  
H327     H      0.228220000000     0.031010000000     0.647380000000     0.0588783  
H328     H      0.150440000000     0.983730000000     0.595200000000     0.13183    
H329     H      0.408510000000     0.370480000000     0.579060000000     0.0382274  
H330     H      0.401150000000     0.394590000000     0.023790000000     0.0423544  
H331     H      0.485310000000     0.371920000000     0.580670000000    -0.00031967 
H332     H      0.522480000000     0.383740000000     0.525180000000     0.0556218  
H333     H      0.361010000000     0.324020000000     0.559010000000     0.043557   
H334     H      0.398000000000     0.345370000000     0.005210000000     0.0374099  
H335     H      0.471300000000     0.336900000000     0.508710000000     0.0568503  
H336     H      0.523800000000     0.337440000000     0.574570000000     0.132207   
H337     H      0.742870000000     0.876420000000     0.774990000000     0.0366847  
H338     H      0.771100000000     0.833990000000     0.806430000000     0.0387414  
H339     H      0.645420000000     0.824160000000     0.775040000000     0.00167829 
H340     H      0.625240000000     0.757320000000     0.808930000000     0.051504   
H341     H      0.768560000000     0.854630000000     0.746980000000     0.0370745  
H342     H      0.740900000000     0.785570000000     0.779580000000     0.0409511  
H343     H      0.656200000000     0.740510000000     0.781800000000     0.0546577  
H344     H      0.587060000000     0.765060000000     0.754460000000     0.131942   
H345     H      0.746220000000     0.954830000000     0.512810000000     0.0319382  
H346     H      0.771240000000     0.922210000000     0.554550000000     0.0394412  
H347     H      0.662450000000     0.916530000000     0.515320000000    -0.00167462 
H348     H      0.626340000000     0.849320000000     0.551600000000     0.0531781  
H349     H      0.774170000000     0.929580000000     0.491330000000     0.0372027  
H350     H      0.750030000000     0.870310000000     0.532160000000     0.0392559  
H351     H      0.650440000000     0.822050000000     0.527460000000     0.0617475  
H352     H      0.595710000000     0.865140000000     0.497690000000     0.131586   
H353     H      0.813980000000     0.789150000000     0.646680000000     0.0354969  
H354     H      0.848810000000     0.800340000000     0.590590000000     0.0394743  
H355     H      0.733600000000     0.714220000000     0.650360000000     0.00111848 
H356     H      0.724570000000     0.672070000000     0.599430000000     0.0569332  
H357     H      0.817130000000     0.836540000000     0.624810000000     0.0385077  
H358     H      0.797710000000     0.793890000000     0.572070000000     0.0375149  
H359     H      0.724390000000     0.715580000000     0.574430000000     0.0597458  
H360     H      0.662830000000     0.677430000000     0.635400000000     0.137334   
H361     H      0.575090000000     0.930160000000     0.644390000000     0.0337569  
H362     H      0.574050000000     0.867280000000     0.674780000000     0.0413921  
H363     H      0.650320000000     0.004660000000     0.648500000000    -0.000256366
H364     H      0.704730000000     0.989080000000     0.674580000000     0.0610184  
H365     H      0.535920000000     0.911520000000     0.678450000000     0.0379213  
H366     H      0.589610000000     0.899480000000     0.712620000000     0.0399038  
H367     H      0.675060000000     0.975290000000     0.713570000000     0.0629842  
H368     H      0.671920000000     0.065800000000     0.675440000000     0.149589   
H369     H      0.978060000000     0.575750000000     0.881280000000     0.0340267  
H370     H      0.954310000000     0.522660000000     0.837140000000     0.045098   
H371     H      0.061680000000     0.622430000000     0.878150000000    -0.00208892 
H372     H      0.098360000000     0.594910000000     0.839210000000     0.052101   
H373     H      0.951530000000     0.521430000000     0.900810000000     0.0389733  
H374     H      0.974640000000     0.489510000000     0.857260000000     0.0416625  
H375     H      0.076920000000     0.542820000000     0.861940000000     0.0625065  
H376     H      0.129070000000     0.638050000000     0.894680000000     0.131391   
H377     H      0.061330000000     0.443470000000     0.628380000000     0.0309541  
H378     H      0.095330000000     0.508020000000     0.590660000000     0.0371683  
H379     H      0.978660000000     0.404050000000     0.629090000000     0.000947642
H380     H      0.951170000000     0.434380000000     0.587180000000     0.0536382  
H381     H      0.094060000000     0.494700000000     0.651910000000     0.0394774  
H382     H      0.072570000000     0.536940000000     0.614190000000     0.0436661  
H383     H      0.969980000000     0.486060000000     0.609470000000     0.0589758  
H384     H      0.914010000000     0.397500000000     0.644430000000     0.134202   
H385     H      0.000670000000     0.629030000000     0.591530000000     0.0357967  
H386     H      0.031990000000     0.647240000000     0.535740000000     0.0423734  
H387     H      0.933060000000     0.553190000000     0.588640000000     0.000519538
H388     H      0.902970000000     0.522580000000     0.531610000000     0.0563696  
H389     H      0.998150000000     0.677770000000     0.578090000000     0.0421578  
H390     H      0.984490000000     0.651550000000     0.520870000000     0.0399162  
H391     H      0.902210000000     0.573630000000     0.022090000000     0.0583431  
H392     H      0.859690000000     0.508820000000     0.585560000000     0.133059   
H393     H      0.305530000000     0.074970000000     0.965670000000     0.033996   
H394     H      0.278890000000     0.120990000000     0.993870000000     0.0374035  
H395     H      0.389370000000     0.111210000000     0.966130000000    -0.00204629 
H396     H      0.424090000000     0.181870000000     0.996990000000     0.0559635  
H397     H      0.277740000000     0.092910000000     0.936040000000     0.0358603  
H398     H      0.307530000000     0.166050000000     0.964180000000     0.0396241  
H399     H      0.404730000000     0.207620000000     0.967270000000     0.0606596  
H400     H      0.456020000000     0.159320000000     0.945980000000     0.130698   
H401     H      0.396540000000     0.277950000000     0.714030000000     0.0348409  
H402     H      0.424260000000     0.237950000000     0.747010000000     0.039361   
H403     H      0.312000000000     0.236400000000     0.716740000000     0.00485088 
H404     H      0.278650000000     0.162240000000     0.744790000000     0.051739   
H405     H      0.425440000000     0.259520000000     0.686280000000     0.037409   
H406     H      0.402130000000     0.191550000000     0.718480000000     0.0390587  
H407     H      0.304820000000     0.142820000000     0.715030000000     0.0603644  
H408     H      0.246220000000     0.187350000000     0.696070000000     0.133189   
H409     H      0.483820000000     0.113010000000     0.824180000000     0.0373289  
H410     H      0.513390000000     0.141450000000     0.767930000000     0.04244    
H411     H      0.413070000000     0.036670000000     0.822640000000     0.000744253
H412     H      0.393960000000     0.008490000000     0.765840000000     0.0643164  
H413     H      0.481330000000     0.163070000000     0.814690000000     0.0417208  
H414     H      0.460410000000     0.137850000000     0.756430000000     0.0372661  
H415     H      0.386720000000     0.055210000000     0.754130000000     0.0620856  
H416     H      0.344480000000     0.018890000000     0.836450000000     0.148543   
H417     H      0.061090000000     0.367600000000     0.000230000000     0.0414784  
H418     H      0.015470000000     0.383740000000     0.462010000000     0.0517997  
H419     H      0.136310000000     0.439950000000     0.007580000000    -0.000531387
H420     H      0.148490000000     0.502490000000     0.969450000000     0.0584695  
H421     H      0.051540000000     0.334520000000     0.963160000000     0.048562   
H422     H      0.054140000000     0.393900000000     0.928340000000     0.0433455  
H423     H      0.138140000000     0.466110000000     0.934310000000     0.0625201  
H424     H      0.206890000000     0.483960000000     0.993590000000     0.132576   
H425     H      0.301840000000     0.280680000000     0.919870000000     0.0349466  
H426     H      0.345890000000     0.289670000000     0.870290000000     0.0426179  
H427     H      0.221940000000     0.200020000000     0.915560000000    -0.0012352  
H428     H      0.219250000000     0.164380000000     0.862230000000     0.0538212  
H429     H      0.304880000000     0.326110000000     0.895710000000     0.0415539  
H430     H      0.302790000000     0.289020000000     0.844020000000     0.0385987  
H431     H      0.224530000000     0.212070000000     0.839570000000     0.0563585  
H432     H      0.153610000000     0.164470000000     0.895280000000     0.132542   
H433     H      0.423210000000     0.450070000000     0.872030000000     0.0323963  
H434     H      0.464470000000     0.519900000000     0.902700000000     0.0395177  
H435     H      0.464770000000     0.408020000000     0.874900000000    -0.00124767 
H436     H      0.540080000000     0.449990000000     0.901870000000     0.0534129  
H437     H      0.439970000000     0.495730000000     0.843140000000     0.0368873  
H438     H      0.510250000000     0.542280000000     0.873340000000     0.0389523  
H439     H      0.558960000000     0.494300000000     0.871230000000     0.0595164  
H440     H      0.514180000000     0.391260000000     0.854790000000     0.131348   
H441     H      0.626660000000     0.563700000000     0.622400000000     0.0325567  
H442     H      0.583220000000     0.491600000000     0.651350000000     0.038343   
H443     H      0.587700000000     0.607700000000     0.623460000000    -0.00125385 
H444     H      0.515900000000     0.569710000000     0.653680000000     0.055932   
H445     H      0.609870000000     0.517970000000     0.593220000000     0.03656    
H446     H      0.537210000000     0.472570000000     0.621970000000     0.0394603  
H447     H      0.492050000000     0.524460000000     0.624040000000     0.06052    
H448     H      0.538230000000     0.624620000000     0.603610000000     0.135528   
H449     H      0.894980000000     0.165500000000     0.943910000000     0.0381979  
H450     H      0.944560000000     0.198700000000     0.896200000000     0.0388824  
H451     H      0.873310000000     0.268300000000     0.963740000000     0.000625202
H452     H      0.839260000000     0.218150000000     0.917560000000     0.0509977  
H453     H      0.951110000000     0.203370000000     0.958860000000     0.0325352  
H454     H      0.966960000000     0.254940000000     0.911980000000     0.0514847  
H455     H      0.875690000000     0.272760000000     0.900320000000     0.0481975  
H456     H      0.932860000000     0.326080000000     0.942150000000     0.134979   
H457     H      0.887590000000     0.161360000000     0.674610000000     0.0341848  
H458     H      0.850600000000     0.097960000000     0.712060000000     0.0377549  
H459     H      0.834610000000     0.207480000000     0.679430000000     0.00307712 
H460     H      0.768160000000     0.160900000000     0.715030000000     0.0586217  
H461     H      0.859610000000     0.111440000000     0.649720000000     0.0381299  
H462     H      0.798570000000     0.074140000000     0.688690000000     0.0382313  
H463     H      0.751940000000     0.112360000000     0.688890000000     0.0684135  
H464     H      0.773210000000     0.205000000000     0.660700000000     0.136039   
H465     H      0.067090000000     0.291290000000     0.820470000000     0.0339236  
H466     H      0.093750000000     0.256200000000     0.780310000000     0.0355268  
H467     H      0.112040000000     0.374180000000     0.819600000000    -0.00191983 
H468     H      0.167580000000     0.399750000000     0.775800000000     0.0530278  
H469     H      0.087640000000     0.258930000000     0.842300000000     0.040365   
H470     H      0.147550000000     0.278430000000     0.801230000000     0.0425995  
H471     H      0.200170000000     0.378780000000     0.796230000000     0.0588517  
H472     H      0.172090000000     0.437920000000     0.833020000000     0.13377    
H473     H      0.143870000000     0.278270000000     0.560890000000     0.03575    
H474     H      0.181840000000     0.250870000000     0.524690000000     0.0367587  
H475     H      0.199750000000     0.377420000000     0.558980000000     0.00425285 
H476     H      0.265340000000     0.395440000000     0.523490000000     0.0557269  
H477     H      0.168980000000     0.253630000000     0.586330000000     0.0384907  
H478     H      0.232680000000     0.277850000000     0.549450000000     0.0335812  
H479     H      0.281240000000     0.362230000000     0.549130000000     0.0572614  
H480     H      0.261800000000     0.433420000000     0.579260000000     0.136439   
H481     H      0.045760000000     0.243230000000     0.589250000000     0.034341   
H482     H      0.031790000000     0.209040000000     0.646000000000     0.0387238  
H483     H      0.048640000000     0.318570000000     0.588330000000     0.00175628 
H484     H      0.046040000000     0.342120000000     0.645850000000     0.0559607  
H485     H      0.992040000000     0.191840000000     0.592410000000     0.038018   
H486     H      0.981490000000     0.213710000000     0.649540000000     0.0355925  
H487     H      0.990380000000     0.293870000000     0.651670000000     0.0580089  
H488     H      0.015010000000     0.358670000000     0.592060000000     0.136704   
H489     H      0.320180000000     0.423370000000     0.752170000000     0.0343229  
H490     H      0.378830000000     0.482550000000     0.715860000000     0.0407964  
H491     H      0.315830000000     0.345390000000     0.748000000000    -0.00245529 
H492     H      0.382370000000     0.357970000000     0.718000000000     0.060292   
H493     H      0.296610000000     0.440950000000     0.719490000000     0.0395838  
H494     H      0.355860000000     0.445490000000     0.680710000000     0.0423831  
H495     H      0.363280000000     0.371190000000     0.680180000000     0.0635682  
H496     H      0.273350000000     0.283450000000     0.722970000000     0.143515   
H497     H      0.592360000000     0.984050000000     0.839540000000     0.0323409  
H498     H      0.538480000000     0.958340000000     0.883560000000     0.0395931  
H499     H      0.635220000000     0.067900000000     0.842030000000     0.000919584
H500     H      0.603860000000     0.101280000000     0.880490000000     0.0518277  
H501     H      0.537760000000     0.954850000000     0.819910000000     0.0381864  
H502     H      0.502970000000     0.975600000000     0.863000000000     0.0381129  
H503     H      0.551190000000     0.076710000000     0.857790000000     0.0606041  
H504     H      0.646410000000     0.133070000000     0.824930000000     0.131524   
H505     H      0.451290000000     0.061500000000     0.591600000000     0.0327411  
H506     H      0.515690000000     0.095490000000     0.629730000000     0.0365798  
H507     H      0.412140000000     0.979090000000     0.591250000000    -0.00331659 
H508     H      0.443170000000     0.952350000000     0.633230000000     0.0520288  
H509     H      0.502980000000     0.094080000000     0.568290000000     0.0375256  
H510     H      0.545520000000     0.073480000000     0.606480000000     0.0409641  
H511     H      0.495330000000     0.971640000000     0.611020000000     0.0581188  
H512     H      0.406280000000     0.915090000000     0.576180000000     0.130806   
H513     H      0.717680000000     0.150630000000     0.485490000000     0.0339352  
H514     H      0.653690000000     0.148530000000     0.515360000000     0.0397868  
H515     H      0.715640000000     0.071660000000     0.488970000000     0.000910266
H516     H      0.645170000000     0.018360000000     0.016740000000     0.0564477  
H517     H      0.736730000000     0.186340000000     0.521430000000     0.0401379  
H518     H      0.669790000000     0.131840000000     0.553010000000     0.039738   
H519     H      0.662010000000     0.050710000000     0.554530000000     0.060172   
H520     H      0.724620000000     0.024000000000     0.019400000000     0.136347   
H521     H      0.218610000000     0.832150000000     0.781510000000     0.0388721  
H522     H      0.263660000000     0.863290000000     0.731770000000     0.0385005  
H523     H      0.192370000000     0.932800000000     0.799400000000     0.000764065
H524     H      0.156860000000     0.878340000000     0.755520000000     0.0503422  
H525     H      0.274910000000     0.873130000000     0.794210000000     0.0358219  
H526     H      0.285450000000     0.920340000000     0.745590000000     0.0534944  
H527     H      0.189500000000     0.932310000000     0.736220000000     0.0498052  
H528     H      0.249160000000     0.990210000000     0.775130000000     0.137094   
H529     H      0.206670000000     0.827970000000     0.510050000000     0.0380397  
H530     H      0.170490000000     0.764920000000     0.547860000000     0.037006   
H531     H      0.149860000000     0.872100000000     0.513090000000     0.00375191 
H532     H      0.085920000000     0.825380000000     0.549920000000     0.0527067  
H533     H      0.179480000000     0.777570000000     0.485600000000     0.0419601  
H534     H      0.118440000000     0.740150000000     0.524440000000     0.0345594  
H535     H      0.069700000000     0.775780000000     0.524910000000     0.0562544  
H536     H      0.086620000000     0.864820000000     0.493730000000     0.135367   
H537     H      0.329560000000     0.977670000000     0.964850000000     0.0368659  
H538     H      0.397500000000     0.033420000000     0.936630000000     0.044118   
H539     H      0.338160000000     0.906650000000     0.969200000000     0.00211216 
H540     H      0.399340000000     0.907980000000     0.433120000000     0.0575603  
H541     H      0.312060000000     0.989300000000     0.925680000000     0.0427668  
H542     H      0.380750000000     0.001890000000     0.898400000000     0.0379341  
H543     H      0.376210000000     0.922450000000     0.898210000000     0.0574139  
H544     H      0.323080000000     0.841230000000     0.450310000000     0.133149   
H545     H      0.807830000000     0.721840000000     0.970340000000     0.0378568  
H546     H      0.885550000000     0.745650000000     0.989190000000     0.0394337  
H547     H      0.759680000000     0.638900000000     0.973270000000    -0.00119519 
H548     H      0.801660000000     0.600120000000     0.991280000000     0.0556607  
H549     H      0.846890000000     0.747880000000     0.936220000000     0.0389463  
H550     H      0.893580000000     0.715620000000     0.955450000000     0.0398601  
H551     H      0.839480000000     0.623700000000     0.956580000000     0.0633045  
H552     H      0.733300000000     0.571880000000     0.951150000000     0.130777   
H553     H      0.946780000000     0.718000000000     0.728160000000     0.0324547  
H554     H      0.915160000000     0.746980000000     0.688090000000     0.0381201  
H555     H      0.904470000000     0.633350000000     0.724540000000     0.000209853
H556     H      0.837000000000     0.602220000000     0.688020000000     0.0555529  
H557     H      0.923090000000     0.746460000000     0.750970000000     0.0364993  
H558     H      0.862780000000     0.724710000000     0.710600000000     0.0393413  
H559     H      0.812380000000     0.628580000000     0.712740000000     0.0606798  
H560     H      0.849610000000     0.567990000000     0.741320000000     0.13399    
H561     H      0.664750000000     0.547440000000     0.831510000000     0.038845   
H562     H      0.647900000000     0.508380000000     0.777450000000     0.0430862  
H563     H      0.663730000000     0.623180000000     0.828560000000     0.00185675 
H564     H      0.636900000000     0.628790000000     0.773440000000     0.0569915  
H565     H      0.713040000000     0.545820000000     0.814930000000     0.0449532  
H566     H      0.693730000000     0.557840000000     0.758240000000     0.0400782  
H567     H      0.685360000000     0.630760000000     0.753920000000     0.0589917  
H568     H      0.695210000000     0.692950000000     0.811920000000     0.137835   
H569     H      0.005830000000     0.791870000000     0.905950000000     0.0400315  
H570     H      0.051510000000     0.843570000000     0.860310000000     0.0397264  
H571     H      0.008770000000     0.719100000000     0.906110000000     0.00423582 
H572     H      0.061460000000     0.722230000000     0.862520000000     0.0573407  
H573     H      0.970630000000     0.799560000000     0.876530000000     0.0389402  
H574     H      0.019550000000     0.800030000000     0.830370000000     0.0365914  
H575     H      0.027040000000     0.727410000000     0.830730000000     0.0579873  
H576     H      0.988460000000     0.652990000000     0.885160000000     0.136543   
N1       N      0.791160000000     0.058050000000     0.346440000000    -0.194758   
N2       N      0.749480000000     0.964440000000     0.356510000000    -0.174598   
N3       N      0.970580000000     0.391820000000     0.280250000000    -0.196062   
N4       N      0.920530000000     0.299320000000     0.268390000000    -0.174257   
N5       N      0.081160000000     0.637440000000     0.209360000000    -0.193798   
N6       N      0.113820000000     0.717590000000     0.171410000000    -0.173467   
N7       N      0.650030000000     0.725870000000     0.437380000000    -0.194054   
N8       N      0.613640000000     0.648660000000     0.477840000000    -0.173216   
N9       N      0.234960000000     0.967920000000     0.108390000000    -0.19416    
N10      N      0.284560000000     0.062640000000     0.114890000000    -0.172584   
N11      N      0.421400000000     0.318240000000     0.065010000000    -0.194013   
N12      N      0.463970000000     0.392910000000     0.021830000000    -0.173985   
N13      N      0.695350000000     0.822390000000     0.244850000000    -0.193213   
N14      N      0.698110000000     0.797850000000     0.310870000000    -0.174548   
N15      N      0.700930000000     0.894890000000     0.987330000000    -0.195042   
N16      N      0.698570000000     0.877630000000     0.055900000000    -0.172242   
N17      N      0.749900000000     0.776930000000     0.128950000000    -0.194162   
N18      N      0.788960000000     0.733700000000     0.094050000000    -0.174559   
N19      N      0.598380000000     0.975740000000     0.184970000000    -0.197264   
N20      N      0.642390000000     0.925030000000     0.176840000000    -0.173243   
N21      N      0.024770000000     0.560710000000     0.404340000000    -0.195196   
N22      N      0.026680000000     0.549320000000     0.335340000000    -0.172035   
N23      N      0.021010000000     0.464590000000     0.154690000000    -0.194896   
N24      N      0.023270000000     0.481120000000     0.086430000000    -0.173047   
N25      N      0.933920000000     0.614760000000     0.079710000000    -0.19535    
N26      N      0.968780000000     0.584210000000     0.029380000000    -0.173402   
N27      N      0.350960000000     0.126870000000     0.433200000000    -0.19677    
N28      N      0.352010000000     0.158570000000     0.497200000000    -0.173163   
N29      N      0.352210000000     0.223630000000     0.183150000000    -0.194149   
N30      N      0.351420000000     0.193350000000     0.247740000000    -0.173681   
N31      N      0.416790000000     0.099880000000     0.314480000000    -0.196642   
N32      N      0.455300000000     0.073980000000     0.263300000000    -0.173591   
N33      N      0.119450000000     0.391260000000     0.469680000000    -0.194205   
N34      N      0.079830000000     0.446260000000     0.464190000000    -0.172071   
N35      N      0.239400000000     0.264580000000     0.397050000000    -0.192986   
N36      N      0.284970000000     0.225060000000     0.363870000000    -0.172798   
N37      N      0.476890000000     0.459530000000     0.340240000000    -0.196068   
N38      N      0.508940000000     0.491560000000     0.404160000000    -0.174036   
N39      N      0.573030000000     0.554310000000     0.090320000000    -0.19697    
N40      N      0.542670000000     0.523960000000     0.154390000000    -0.174051   
N41      N      0.903470000000     0.226050000000     0.465250000000    -0.194371   
N42      N      0.898960000000     0.225640000000     0.394840000000    -0.168832   
N43      N      0.829790000000     0.154500000000     0.149390000000    -0.193476   
N44      N      0.811420000000     0.131450000000     0.216750000000    -0.171464   
N45      N      0.130880000000     0.331510000000     0.344010000000    -0.194304   
N46      N      0.139210000000     0.327480000000     0.274860000000    -0.173104   
N47      N      0.200980000000     0.326490000000     0.088050000000    -0.19298    
N48      N      0.221560000000     0.323330000000     0.020980000000    -0.173911   
N49      N      0.989450000000     0.254240000000     0.090900000000    -0.194919   
N50      N      0.042470000000     0.277170000000     0.148500000000    -0.174643   
N51      N      0.290710000000     0.374820000000     0.213670000000    -0.197044   
N52      N      0.385920000000     0.422740000000     0.216300000000    -0.174588   
N53      N      0.573940000000     0.027570000000     0.315710000000    -0.193126   
N54      N      0.561500000000     0.029550000000     0.385000000000    -0.172427   
N55      N      0.472770000000     0.021530000000     0.065450000000    -0.194366   
N56      N      0.489540000000     0.024080000000     0.134140000000    -0.172318   
N57      N      0.739370000000     0.124150000000     0.024470000000    -0.193299   
N58      N      0.644150000000     0.080990000000     0.016100000000    -0.173379   
N59      N      0.225030000000     0.892760000000     0.301170000000    -0.193278   
N60      N      0.216220000000     0.887920000000     0.230960000000    -0.168691   
N61      N      0.148420000000     0.819520000000     0.984510000000    -0.193728   
N62      N      0.130660000000     0.797770000000     0.051830000000    -0.174803   
N63      N      0.308490000000     0.924400000000     0.430000000000    -0.195983   
N64      N      0.403350000000     0.973380000000     0.435160000000    -0.173997   
N65      N      0.805030000000     0.675200000000     0.434230000000    -0.197738   
N66      N      0.847710000000     0.672660000000     0.492320000000    -0.174226   
N67      N      0.885880000000     0.673520000000     0.253230000000    -0.195707   
N68      N      0.870250000000     0.674790000000     0.185140000000    -0.173857   
N69      N      0.716180000000     0.611010000000     0.313430000000    -0.193163   
N70      N      0.638600000000     0.566360000000     0.272910000000    -0.173771   
N71      N      0.968520000000     0.734880000000     0.374800000000    -0.195234   
N72      N      0.061330000000     0.785500000000     0.361100000000    -0.174778   
N73      N      0.791160000000     0.058050000000     0.846440000000    -0.194739   
N74      N      0.749480000000     0.964450000000     0.856510000000    -0.174532   
N75      N      0.970580000000     0.391820000000     0.780250000000    -0.19607    
N76      N      0.920530000000     0.299320000000     0.768390000000    -0.174276   
N77      N      0.081160000000     0.637440000000     0.709360000000    -0.19382    
N78      N      0.113830000000     0.717590000000     0.671410000000    -0.173453   
N79      N      0.650030000000     0.725870000000     0.937390000000    -0.194011   
N80      N      0.613640000000     0.648660000000     0.977840000000    -0.173222   
N81      N      0.234960000000     0.967920000000     0.608390000000    -0.194185   
N82      N      0.284560000000     0.062640000000     0.614890000000    -0.172587   
N83      N      0.421400000000     0.318240000000     0.565010000000    -0.194015   
N84      N      0.463970000000     0.392900000000     0.521830000000    -0.174012   
N85      N      0.695350000000     0.822390000000     0.744850000000    -0.193218   
N86      N      0.698110000000     0.797850000000     0.810870000000    -0.174546   
N87      N      0.700930000000     0.894890000000     0.487330000000    -0.194958   
N88      N      0.698570000000     0.877630000000     0.555900000000    -0.172249   
N89      N      0.749900000000     0.776930000000     0.628950000000    -0.194175   
N90      N      0.788950000000     0.733700000000     0.594050000000    -0.174435   
N91      N      0.598380000000     0.975740000000     0.684970000000    -0.197269   
N92      N      0.642400000000     0.925030000000     0.676840000000    -0.173281   
N93      N      0.024770000000     0.560710000000     0.904340000000    -0.195202   
N94      N      0.026680000000     0.549320000000     0.835340000000    -0.172036   
N95      N      0.021010000000     0.464590000000     0.654680000000    -0.194871   
N96      N      0.023270000000     0.481130000000     0.586430000000    -0.173097   
N97      N      0.933920000000     0.614760000000     0.579710000000    -0.195293   
N98      N      0.968790000000     0.584200000000     0.529380000000    -0.173504   
N99      N      0.350960000000     0.126870000000     0.933200000000    -0.196784   
N100     N      0.352010000000     0.158570000000     0.997190000000    -0.173192   
N101     N      0.352210000000     0.223630000000     0.683150000000    -0.194145   
N102     N      0.351420000000     0.193350000000     0.747740000000    -0.173685   
N103     N      0.416790000000     0.099880000000     0.814480000000    -0.196623   
N104     N      0.455300000000     0.073980000000     0.763300000000    -0.173539   
N105     N      0.119450000000     0.391260000000     0.969680000000    -0.194158   
N106     N      0.079830000000     0.446260000000     0.964190000000    -0.172077   
N107     N      0.239410000000     0.264580000000     0.897050000000    -0.192938   
N108     N      0.284970000000     0.225060000000     0.863870000000    -0.172797   
N109     N      0.476890000000     0.459530000000     0.840240000000    -0.196018   
N110     N      0.508940000000     0.491560000000     0.904160000000    -0.17405    
N111     N      0.573030000000     0.554310000000     0.590320000000    -0.196926   
N112     N      0.542670000000     0.523960000000     0.654390000000    -0.174035   
N113     N      0.903470000000     0.226050000000     0.965250000000    -0.194383   
N114     N      0.898960000000     0.225640000000     0.894840000000    -0.168839   
N115     N      0.829780000000     0.154500000000     0.649390000000    -0.193473   
N116     N      0.811420000000     0.131450000000     0.716750000000    -0.171457   
N117     N      0.130880000000     0.331510000000     0.844020000000    -0.194366   
N118     N      0.139210000000     0.327480000000     0.774860000000    -0.173106   
N119     N      0.200980000000     0.326490000000     0.588050000000    -0.192961   
N120     N      0.221560000000     0.323330000000     0.520990000000    -0.173877   
N121     N      0.989450000000     0.254240000000     0.590900000000    -0.19487    
N122     N      0.042470000000     0.277170000000     0.648500000000    -0.174645   
N123     N      0.290710000000     0.374820000000     0.713680000000    -0.197024   
N124     N      0.385920000000     0.422740000000     0.716300000000    -0.174585   
N125     N      0.573940000000     0.027570000000     0.815710000000    -0.193127   
N126     N      0.561500000000     0.029550000000     0.885000000000    -0.172358   
N127     N      0.472770000000     0.021530000000     0.565450000000    -0.194321   
N128     N      0.489540000000     0.024080000000     0.634140000000    -0.172318   
N129     N      0.739370000000     0.124150000000     0.524470000000    -0.193291   
N130     N      0.644150000000     0.080990000000     0.516100000000    -0.173315   
N131     N      0.225030000000     0.892760000000     0.801170000000    -0.193279   
N132     N      0.216220000000     0.887920000000     0.730960000000    -0.168628   
N133     N      0.148420000000     0.819520000000     0.484510000000    -0.193624   
N134     N      0.130660000000     0.797770000000     0.551830000000    -0.174847   
N135     N      0.308490000000     0.924400000000     0.930000000000    -0.195978   
N136     N      0.403350000000     0.973380000000     0.935160000000    -0.174021   
N137     N      0.805030000000     0.675200000000     0.934230000000    -0.197739   
N138     N      0.847710000000     0.672650000000     0.992320000000    -0.174288   
N139     N      0.885880000000     0.673520000000     0.753230000000    -0.195716   
N140     N      0.870250000000     0.674790000000     0.685140000000    -0.173843   
N141     N      0.716180000000     0.611010000000     0.813430000000    -0.193115   
N142     N      0.638600000000     0.566360000000     0.772910000000    -0.173786   
N143     N      0.968520000000     0.734880000000     0.874800000000    -0.195233   
N144     N      0.061330000000     0.785500000000     0.861100000000    -0.174778   
O1       O      0.860200000000     0.639560000000     0.303980000000    -0.541755   
O2       O      0.819260000000     0.639640000000     0.391570000000    -0.5484     
O3       O      0.779330000000     0.610210000000     0.332630000000    -0.560267   
O4       O      0.901280000000     0.669500000000     0.363110000000    -0.540538   
O5       O      0.906430000000     0.736230000000     0.353900000000    -0.565773   
O6       O      0.784120000000     0.676780000000     0.323690000000    -0.535007   
O7       O      0.826130000000     0.707330000000     0.382680000000    -0.560436   
O8       O      0.866600000000     0.706910000000     0.294750000000    -0.558694   
O9       O      0.211400000000     0.845230000000     0.345300000000    -0.561669   
O10      O      0.171480000000     0.808190000000     0.433710000000    -0.561848   
O11      O      0.130150000000     0.791820000000     0.374090000000    -0.560881   
O12      O      0.251140000000     0.860880000000     0.405270000000    -0.546628   
O13      O      0.241980000000     0.920480000000     0.412570000000    -0.556595   
O14      O      0.121200000000     0.851890000000     0.379970000000    -0.558234   
O15      O      0.160040000000     0.866680000000     0.440200000000    -0.542901   
O16      O      0.202070000000     0.905000000000     0.351970000000    -0.555161   
O17      O      0.541050000000     0.995660000000     0.436370000000    -0.554638   
O18      O      0.493900000000     0.989980000000     0.023270000000    -0.535635   
O19      O      0.459570000000     0.967420000000     0.461680000000    -0.562265   
O20      O      0.577950000000     0.019120000000     0.998190000000    -0.556597   
O21      O      0.586700000000     0.087910000000     0.991780000000    -0.556938   
O22      O      0.467920000000     0.035980000000     0.454640000000    -0.551222   
O23      O      0.503600000000     0.059060000000     0.016510000000    -0.557492   
O24      O      0.551450000000     0.065140000000     0.429940000000    -0.552049   
O25      O      0.142560000000     0.289730000000     0.228700000000    -0.556014   
O26      O      0.177890000000     0.291370000000     0.138780000000    -0.55583    
O27      O      0.221700000000     0.314080000000     0.197980000000    -0.544898   
O28      O      0.099670000000     0.267370000000     0.169500000000    -0.562282   
O29      O      0.111430000000     0.337420000000     0.164120000000    -0.557742   
O30      O      0.233400000000     0.383980000000     0.192220000000    -0.563181   
O31      O      0.190900000000     0.361880000000     0.133220000000    -0.543315   
O32      O      0.156090000000     0.360450000000     0.223210000000    -0.558626   
O33      O      0.887750000000     0.177260000000     0.008910000000    -0.559554   
O34      O      0.849470000000     0.141170000000     0.097850000000    -0.5588     
O35      O      0.806490000000     0.126420000000     0.038580000000    -0.537797   
O36      O      0.929020000000     0.191360000000     0.068170000000    -0.565219   
O37      O      0.922950000000     0.252710000000     0.075950000000    -0.534665   
O38      O      0.800770000000     0.188120000000     0.045360000000    -0.558514   
O39      O      0.841420000000     0.201610000000     0.105030000000    -0.540813   
O40      O      0.881420000000     0.238690000000     0.016270000000    -0.552809   
O41      O      0.533450000000     0.479400000000     0.199560000000    -0.559918   
O42      O      0.498700000000     0.446550000000     0.289300000000    -0.541822   
O43      O      0.453860000000     0.427380000000     0.230670000000    -0.552543   
O44      O      0.577300000000     0.498370000000     0.257820000000    -0.555739   
O45      O      0.568340000000     0.558490000000     0.263140000000    -0.559706   
O46      O      0.445210000000     0.487520000000     0.237280000000    -0.567609   
O47      O      0.489100000000     0.506130000000     0.295550000000    -0.561631   
O48      O      0.522520000000     0.538320000000     0.205350000000    -0.561104   
O49      O      0.186580000000     0.362750000000     0.384370000000    -0.533422   
O50      O      0.230670000000     0.358660000000     0.470710000000    -0.552022   
O51      O      0.238590000000     0.329970000000     0.409860000000    -0.556352   
O52      O      0.180440000000     0.391080000000     0.445240000000    -0.537202   
O53      O      0.117390000000     0.325130000000     0.454210000000    -0.550051   
O54      O      0.175980000000     0.263670000000     0.418790000000    -0.53666    
O55      O      0.168590000000     0.291600000000     0.479470000000    -0.556021   
O56      O      0.124700000000     0.295820000000     0.393530000000    -0.557217   
O57      O      0.384190000000     0.176360000000     0.389770000000    -0.541111   
O58      O      0.384020000000     0.208980000000     0.299470000000    -0.557056   
O59      O      0.351870000000     0.223960000000     0.356710000000    -0.551996   
O60      O      0.415270000000     0.162750000000     0.332520000000    -0.557758   
O61      O      0.349290000000     0.099270000000     0.324710000000    -0.536817   
O62      O      0.285660000000     0.160430000000     0.349160000000    -0.556795   
O63      O      0.316820000000     0.146360000000     0.291990000000    -0.555847   
O64      O      0.317160000000     0.113660000000     0.382100000000    -0.561529   
O65      O      0.059940000000     0.567200000000     0.454480000000    -0.540948   
O66      O      0.060180000000     0.527270000000     0.042290000000    -0.559273   
O67      O      0.086250000000     0.512870000000     0.482870000000    -0.551946   
O68      O      0.032770000000     0.581130000000     0.014110000000    -0.549879   
O69      O      0.963990000000     0.521230000000     0.005680000000    -0.56369    
O70      O      0.017100000000     0.453250000000     0.475140000000    -0.554966   
O71      O      0.990270000000     0.468530000000     0.034720000000    -0.554476   
O72      O      0.990650000000     0.508190000000     0.446120000000    -0.555901   
O73      O      0.731670000000     0.895210000000     0.107650000000    -0.553828   
O74      O      0.730740000000     0.867090000000     0.199300000000    -0.556765   
O75      O      0.756400000000     0.845030000000     0.142800000000    -0.563481   
O76      O      0.705160000000     0.918370000000     0.164600000000    -0.551735   
O77      O      0.635770000000     0.858330000000     0.159000000000    -0.560838   
O78      O      0.687070000000     0.785220000000     0.137190000000    -0.536132   
O79      O      0.660900000000     0.807980000000     0.193500000000    -0.539047   
O80      O      0.661460000000     0.836260000000     0.102160000000    -0.554806   
O81      O      0.897150000000     0.708540000000     0.134390000000    -0.556359   
O82      O      0.886870000000     0.706980000000     0.040100000000    -0.554767   
O83      O      0.857290000000     0.736090000000     0.090320000000    -0.563782   
O84      O      0.928310000000     0.679060000000     0.083890000000    -0.557873   
O85      O      0.865130000000     0.611810000000     0.086080000000    -0.542637   
O86      O      0.793930000000     0.668850000000     0.093370000000    -0.556514   
O87      O      0.824130000000     0.639150000000     0.043130000000    -0.564506   
O88      O      0.834980000000     0.640180000000     0.136670000000    -0.561796   
O89      O      0.579620000000     0.061210000000     0.265060000000    -0.535857   
O90      O      0.535500000000     0.061590000000     0.178480000000    -0.556845   
O91      O      0.521600000000     0.084410000000     0.239750000000    -0.551773   
O92      O      0.593220000000     0.037080000000     0.203830000000    -0.540412   
O93      O      0.535530000000     0.967290000000     0.212240000000    -0.565097   
O94      O      0.463720000000     0.014220000000     0.246660000000    -0.555443   
O95      O      0.479060000000     0.990650000000     0.185610000000    -0.551771   
O96      O      0.522430000000     0.991110000000     0.273350000000    -0.551089   
O97      O      0.318550000000     0.172920000000     0.041360000000    -0.55756    
O98      O      0.319590000000     0.206300000000     0.131390000000    -0.538384   
O99      O      0.352980000000     0.252550000000     0.074100000000    -0.550923   
O100     O      0.286510000000     0.128140000000     0.098680000000    -0.551117   
O101     O      0.351930000000     0.128600000000     0.105930000000    -0.557468   
O102     O      0.417780000000     0.252510000000     0.082480000000    -0.543733   
O103     O      0.385320000000     0.207650000000     0.139430000000    -0.557953   
O104     O      0.384960000000     0.175380000000     0.048900000000    -0.55518    
O105     O      0.524440000000     0.540180000000     0.046340000000    -0.541752   
O106     O      0.494330000000     0.511420000000     0.455240000000    -0.559207   
O107     O      0.471970000000     0.462860000000     0.011980000000    -0.557615   
O108     O      0.545160000000     0.586690000000     0.490090000000    -0.561721   
O109     O      0.605520000000     0.577830000000     0.483460000000    -0.552521   
O110     O      0.532380000000     0.453800000000     0.006620000000    -0.55942    
O111     O      0.553400000000     0.500200000000     0.449510000000    -0.558919   
O112     O      0.584270000000     0.530310000000     0.040080000000    -0.564506   
O113     O      0.162960000000     0.866410000000     0.189540000000    -0.553774   
O114     O      0.122010000000     0.824080000000     0.102010000000    -0.556483   
O115     O      0.112830000000     0.783710000000     0.161340000000    -0.549849   
O116     O      0.171870000000     0.905350000000     0.129990000000    -0.534364   
O117     O      0.234730000000     0.901960000000     0.120450000000    -0.559932   
O118     O      0.176620000000     0.781570000000     0.152550000000    -0.562783   
O119     O      0.184210000000     0.818920000000     0.093060000000    -0.556931   
O120     O      0.226190000000     0.863270000000     0.180220000000    -0.556894   
O121     O      0.989320000000     0.486640000000     0.196170000000    -0.536193   
O122     O      0.992970000000     0.529770000000     0.283940000000    -0.552811   
O123     O      0.018190000000     0.569480000000     0.223390000000    -0.556776   
O124     O      0.965080000000     0.449890000000     0.256620000000    -0.541903   
O125     O      0.033860000000     0.457960000000     0.263900000000    -0.556938   
O126     O      0.087060000000     0.577620000000     0.229960000000    -0.541152   
O127     O      0.062870000000     0.540050000000     0.290550000000    -0.556756   
O128     O      0.058670000000     0.495950000000     0.203340000000    -0.56008    
O129     O      0.846680000000     0.206010000000     0.352880000000    -0.557641   
O130     O      0.803410000000     0.158850000000     0.266700000000    -0.554501   
O131     O      0.792580000000     0.122740000000     0.328110000000    -0.539406   
O132     O      0.856910000000     0.240720000000     0.291700000000    -0.565106   
O133     O      0.917520000000     0.232810000000     0.283110000000    -0.556383   
O134     O      0.853760000000     0.115510000000     0.320950000000    -0.564332   
O135     O      0.862950000000     0.148820000000     0.259110000000    -0.554794   
O136     O      0.907550000000     0.198290000000     0.344810000000    -0.556101   
O137     O      0.663180000000     0.814540000000     0.352720000000    -0.560629   
O138     O      0.665840000000     0.864650000000     0.437390000000    -0.541636   
O139     O      0.688600000000     0.898170000000     0.375200000000    -0.558031   
O140     O      0.641260000000     0.782460000000     0.414540000000    -0.564416   
O141     O      0.711460000000     0.794050000000     0.421290000000    -0.535516   
O142     O      0.759040000000     0.911010000000     0.383850000000    -0.562219   
O143     O      0.736120000000     0.877150000000     0.445770000000    -0.553663   
O144     O      0.734690000000     0.829590000000     0.359860000000    -0.554148   
O145     O      0.717990000000     0.051380000000     0.338730000000    -0.269      
O146     O      0.900910000000     0.392560000000     0.290160000000    -0.272308   
O147     O      0.151950000000     0.639430000000     0.199590000000    -0.273843   
O148     O      0.722450000000     0.729220000000     0.438010000000    -0.272182   
O149     O      0.165120000000     0.970050000000     0.108550000000    -0.273162   
O150     O      0.491840000000     0.316850000000     0.067600000000    -0.272215   
O151     O      0.615100000000     0.768870000000     0.243650000000    -0.271026   
O152     O      0.619570000000     0.860950000000     0.986710000000    -0.273191   
O153     O      0.677060000000     0.708730000000     0.126550000000    -0.269029   
O154     O      0.670390000000     0.043210000000     0.191750000000    -0.278352   
O155     O      0.105870000000     0.609090000000     0.404860000000    -0.272117   
O156     O      0.939640000000     0.424650000000     0.154890000000    -0.272353   
O157     O      0.867370000000     0.540790000000     0.082930000000    -0.272419   
O158     O      0.431800000000     0.160650000000     0.433000000000    -0.276065   
O159     O      0.270780000000     0.186690000000     0.183080000000    -0.270601   
O160     O      0.348960000000     0.026650000000     0.312410000000    -0.265677   
O161     O      0.192600000000     0.457770000000     0.478160000000    -0.272145   
O162     O      0.168700000000     0.196470000000     0.387810000000    -0.274347   
O163     O      0.513940000000     0.415320000000     0.341050000000    -0.27328    
O164     O      0.537620000000     0.599740000000     0.090410000000    -0.274251   
O165     O      0.939180000000     0.301020000000     0.446120000000    -0.280558   
O166     O      0.776850000000     0.180870000000     0.149830000000    -0.276262   
O167     O      0.173920000000     0.412290000000     0.343050000000    -0.272726   
O168     O      0.256590000000     0.404730000000     0.089500000000    -0.27514    
O169     O      0.992030000000     0.325930000000     0.091960000000    -0.270832   
O170     O      0.291640000000     0.305640000000     0.205420000000    -0.273556   
O171     O      0.617960000000     0.108630000000     0.314860000000    -0.271396   
O172     O      0.433420000000     0.940670000000     0.065620000000    -0.274003   
O173     O      0.733670000000     0.051950000000     0.032440000000    -0.270731   
O174     O      0.256900000000     0.966150000000     0.279270000000    -0.266809   
O175     O      0.092060000000     0.841400000000     0.983590000000    -0.277572   
O176     O      0.311440000000     0.855320000000     0.434390000000    -0.273032   
O177     O      0.755240000000     0.595480000000     0.435760000000    -0.275827   
O178     O      0.847040000000     0.592500000000     0.252590000000    -0.272118   
O179     O      0.715460000000     0.680600000000     0.306500000000    -0.270298   
O180     O      0.972310000000     0.666400000000     0.373350000000    -0.270372   
O181     O      0.860200000000     0.639560000000     0.803980000000    -0.54182    
O182     O      0.819260000000     0.639640000000     0.891570000000    -0.548361   
O183     O      0.779330000000     0.610210000000     0.832630000000    -0.560104   
O184     O      0.901280000000     0.669500000000     0.863110000000    -0.540659   
O185     O      0.906430000000     0.736230000000     0.853900000000    -0.565791   
O186     O      0.784120000000     0.676790000000     0.823690000000    -0.534834   
O187     O      0.826130000000     0.707330000000     0.882680000000    -0.560433   
O188     O      0.866600000000     0.706910000000     0.794750000000    -0.558709   
O189     O      0.211400000000     0.845230000000     0.845300000000    -0.561665   
O190     O      0.171480000000     0.808190000000     0.933710000000    -0.561856   
O191     O      0.130150000000     0.791820000000     0.874090000000    -0.560875   
O192     O      0.251140000000     0.860880000000     0.905270000000    -0.546528   
O193     O      0.241980000000     0.920480000000     0.912570000000    -0.556688   
O194     O      0.121200000000     0.851890000000     0.879970000000    -0.558241   
O195     O      0.160040000000     0.866680000000     0.940200000000    -0.542921   
O196     O      0.202070000000     0.905000000000     0.851970000000    -0.555166   
O197     O      0.541050000000     0.995660000000     0.936370000000    -0.554721   
O198     O      0.493900000000     0.989970000000     0.523270000000    -0.535586   
O199     O      0.459570000000     0.967420000000     0.961680000000    -0.562255   
O200     O      0.577950000000     0.019120000000     0.498180000000    -0.556565   
O201     O      0.586700000000     0.087910000000     0.491780000000    -0.556865   
O202     O      0.467930000000     0.035980000000     0.954640000000    -0.551374   
O203     O      0.503600000000     0.059060000000     0.516510000000    -0.557468   
O204     O      0.551450000000     0.065140000000     0.929940000000    -0.55214    
O205     O      0.142560000000     0.289730000000     0.728700000000    -0.55601    
O206     O      0.177890000000     0.291370000000     0.638780000000    -0.555802   
O207     O      0.221700000000     0.314080000000     0.697980000000    -0.544886   
O208     O      0.099670000000     0.267370000000     0.669500000000    -0.562277   
O209     O      0.111430000000     0.337420000000     0.664120000000    -0.557739   
O210     O      0.233400000000     0.383980000000     0.692220000000    -0.563189   
O211     O      0.190890000000     0.361880000000     0.633220000000    -0.543299   
O212     O      0.156090000000     0.360450000000     0.723210000000    -0.558635   
O213     O      0.887750000000     0.177260000000     0.508910000000    -0.559658   
O214     O      0.849470000000     0.141170000000     0.597850000000    -0.55878    
O215     O      0.806490000000     0.126420000000     0.538580000000    -0.537776   
O216     O      0.929020000000     0.191360000000     0.568170000000    -0.565228   
O217     O      0.922950000000     0.252710000000     0.575950000000    -0.534867   
O218     O      0.800770000000     0.188120000000     0.545360000000    -0.558393   
O219     O      0.841420000000     0.201610000000     0.605030000000    -0.540764   
O220     O      0.881420000000     0.238690000000     0.516270000000    -0.552931   
O221     O      0.533450000000     0.479400000000     0.699560000000    -0.559791   
O222     O      0.498700000000     0.446540000000     0.789300000000    -0.541633   
O223     O      0.453860000000     0.427380000000     0.730670000000    -0.552523   
O224     O      0.577300000000     0.498370000000     0.757820000000    -0.555692   
O225     O      0.568340000000     0.558490000000     0.763140000000    -0.559696   
O226     O      0.445210000000     0.487520000000     0.737280000000    -0.567611   
O227     O      0.489100000000     0.506130000000     0.795550000000    -0.561582   
O228     O      0.522520000000     0.538320000000     0.705350000000    -0.561176   
O229     O      0.186580000000     0.362750000000     0.884370000000    -0.533455   
O230     O      0.230670000000     0.358660000000     0.970710000000    -0.552054   
O231     O      0.238590000000     0.329970000000     0.909860000000    -0.556335   
O232     O      0.180440000000     0.391080000000     0.945240000000    -0.537258   
O233     O      0.117390000000     0.325130000000     0.954210000000    -0.550075   
O234     O      0.175980000000     0.263670000000     0.918790000000    -0.536645   
O235     O      0.168590000000     0.291600000000     0.979470000000    -0.556057   
O236     O      0.124700000000     0.295820000000     0.893530000000    -0.557245   
O237     O      0.384190000000     0.176360000000     0.889770000000    -0.541098   
O238     O      0.384020000000     0.208980000000     0.799470000000    -0.557079   
O239     O      0.351870000000     0.223960000000     0.856710000000    -0.551994   
O240     O      0.415270000000     0.162750000000     0.832520000000    -0.55778    
O241     O      0.349290000000     0.099270000000     0.824710000000    -0.536978   
O242     O      0.285660000000     0.160430000000     0.849160000000    -0.556763   
O243     O      0.316820000000     0.146360000000     0.791990000000    -0.556009   
O244     O      0.317160000000     0.113660000000     0.882100000000    -0.561386   
O245     O      0.059940000000     0.567200000000     0.954470000000    -0.540873   
O246     O      0.060180000000     0.527270000000     0.542290000000    -0.559468   
O247     O      0.086250000000     0.512870000000     0.982870000000    -0.551783   
O248     O      0.032770000000     0.581130000000     0.514110000000    -0.549944   
O249     O      0.963990000000     0.521230000000     0.505680000000    -0.56397    
O250     O      0.017100000000     0.453250000000     0.975140000000    -0.555003   
O251     O      0.990270000000     0.468540000000     0.534720000000    -0.554653   
O252     O      0.990650000000     0.508190000000     0.946120000000    -0.555864   
O253     O      0.731670000000     0.895210000000     0.607650000000    -0.553808   
O254     O      0.730740000000     0.867090000000     0.699300000000    -0.556775   
O255     O      0.756410000000     0.845030000000     0.642800000000    -0.563308   
O256     O      0.705160000000     0.918370000000     0.664600000000    -0.551719   
O257     O      0.635770000000     0.858330000000     0.659000000000    -0.560813   
O258     O      0.687070000000     0.785220000000     0.637190000000    -0.535971   
O259     O      0.660900000000     0.807980000000     0.693510000000    -0.538937   
O260     O      0.661460000000     0.836260000000     0.602160000000    -0.55476    
O261     O      0.897150000000     0.708540000000     0.634390000000    -0.556136   
O262     O      0.886870000000     0.706980000000     0.540100000000    -0.554974   
O263     O      0.857300000000     0.736100000000     0.590320000000    -0.563592   
O264     O      0.928310000000     0.679060000000     0.583890000000    -0.557983   
O265     O      0.865130000000     0.611810000000     0.586080000000    -0.542635   
O266     O      0.793920000000     0.668850000000     0.593370000000    -0.556299   
O267     O      0.824130000000     0.639150000000     0.543130000000    -0.564521   
O268     O      0.834980000000     0.640180000000     0.636660000000    -0.561916   
O269     O      0.579620000000     0.061210000000     0.765060000000    -0.535854   
O270     O      0.535500000000     0.061590000000     0.678480000000    -0.556842   
O271     O      0.521600000000     0.084410000000     0.739750000000    -0.551767   
O272     O      0.593220000000     0.037080000000     0.703830000000    -0.540405   
O273     O      0.535530000000     0.967290000000     0.712240000000    -0.565102   
O274     O      0.463720000000     0.014220000000     0.746660000000    -0.555555   
O275     O      0.479060000000     0.990650000000     0.685610000000    -0.551773   
O276     O      0.522430000000     0.991110000000     0.773350000000    -0.551093   
O277     O      0.318550000000     0.172920000000     0.541360000000    -0.557821   
O278     O      0.319590000000     0.206300000000     0.631390000000    -0.538235   
O279     O      0.352980000000     0.252550000000     0.574100000000    -0.550973   
O280     O      0.286510000000     0.128140000000     0.598680000000    -0.551086   
O281     O      0.351930000000     0.128600000000     0.605930000000    -0.557472   
O282     O      0.417780000000     0.252510000000     0.582480000000    -0.543748   
O283     O      0.385320000000     0.207650000000     0.639430000000    -0.557939   
O284     O      0.384960000000     0.175380000000     0.548900000000    -0.555334   
O285     O      0.524440000000     0.540180000000     0.546340000000    -0.541807   
O286     O      0.494330000000     0.511420000000     0.955240000000    -0.559321   
O287     O      0.471970000000     0.462860000000     0.511980000000    -0.55765    
O288     O      0.545160000000     0.586690000000     0.990090000000    -0.561816   
O289     O      0.605520000000     0.577830000000     0.983460000000    -0.552488   
O290     O      0.532370000000     0.453810000000     0.506620000000    -0.559859   
O291     O      0.553400000000     0.500200000000     0.949510000000    -0.559015   
O292     O      0.584270000000     0.530310000000     0.540080000000    -0.564876   
O293     O      0.162960000000     0.866410000000     0.689540000000    -0.553832   
O294     O      0.122010000000     0.824080000000     0.602010000000    -0.556512   
O295     O      0.112830000000     0.783710000000     0.661340000000    -0.549828   
O296     O      0.171870000000     0.905350000000     0.629990000000    -0.53431    
O297     O      0.234730000000     0.901960000000     0.620450000000    -0.559945   
O298     O      0.176620000000     0.781570000000     0.652540000000    -0.562817   
O299     O      0.184210000000     0.818930000000     0.593060000000    -0.557052   
O300     O      0.226190000000     0.863270000000     0.680220000000    -0.557027   
O301     O      0.989320000000     0.486640000000     0.696170000000    -0.536339   
O302     O      0.992970000000     0.529770000000     0.783940000000    -0.552699   
O303     O      0.018190000000     0.569470000000     0.723390000000    -0.556987   
O304     O      0.965080000000     0.449890000000     0.756620000000    -0.541884   
O305     O      0.033860000000     0.457960000000     0.763890000000    -0.557      
O306     O      0.087060000000     0.577620000000     0.729960000000    -0.541185   
O307     O      0.062870000000     0.540050000000     0.790550000000    -0.556765   
O308     O      0.058670000000     0.495950000000     0.703340000000    -0.560077   
O309     O      0.846680000000     0.206010000000     0.852890000000    -0.557548   
O310     O      0.803410000000     0.158850000000     0.766700000000    -0.554457   
O311     O      0.792580000000     0.122740000000     0.828110000000    -0.539372   
O312     O      0.856920000000     0.240720000000     0.791700000000    -0.56529    
O313     O      0.917520000000     0.232810000000     0.783110000000    -0.556471   
O314     O      0.853760000000     0.115510000000     0.820950000000    -0.564334   
O315     O      0.862950000000     0.148820000000     0.759110000000    -0.554789   
O316     O      0.907550000000     0.198290000000     0.844810000000    -0.556059   
O317     O      0.663180000000     0.814540000000     0.852720000000    -0.560558   
O318     O      0.665840000000     0.864660000000     0.937400000000    -0.541446   
O319     O      0.688600000000     0.898170000000     0.875200000000    -0.557955   
O320     O      0.641260000000     0.782460000000     0.914540000000    -0.56436    
O321     O      0.711460000000     0.794050000000     0.921290000000    -0.535512   
O322     O      0.759040000000     0.911010000000     0.883850000000    -0.562206   
O323     O      0.736120000000     0.877150000000     0.945770000000    -0.553705   
O324     O      0.734690000000     0.829590000000     0.859860000000    -0.554147   
O325     O      0.717980000000     0.051380000000     0.838730000000    -0.269081   
O326     O      0.900910000000     0.392560000000     0.790160000000    -0.272312   
O327     O      0.151950000000     0.639430000000     0.699590000000    -0.273842   
O328     O      0.722450000000     0.729220000000     0.938010000000    -0.272192   
O329     O      0.165120000000     0.970050000000     0.608550000000    -0.273252   
O330     O      0.491840000000     0.316850000000     0.567600000000    -0.272219   
O331     O      0.615100000000     0.768870000000     0.743650000000    -0.271019   
O332     O      0.619570000000     0.860950000000     0.486710000000    -0.273118   
O333     O      0.677060000000     0.708740000000     0.626550000000    -0.2689     
O334     O      0.670390000000     0.043210000000     0.691750000000    -0.27839    
O335     O      0.105870000000     0.609090000000     0.904850000000    -0.272235   
O336     O      0.939640000000     0.424650000000     0.654890000000    -0.272406   
O337     O      0.867370000000     0.540790000000     0.582930000000    -0.272415   
O338     O      0.431800000000     0.160650000000     0.933000000000    -0.27604    
O339     O      0.270780000000     0.186690000000     0.683080000000    -0.270606   
O340     O      0.348970000000     0.026650000000     0.812410000000    -0.265792   
O341     O      0.192600000000     0.457770000000     0.978160000000    -0.272127   
O342     O      0.168700000000     0.196470000000     0.887810000000    -0.27435    
O343     O      0.513940000000     0.415320000000     0.841050000000    -0.273268   
O344     O      0.537630000000     0.599740000000     0.590410000000    -0.274254   
O345     O      0.939180000000     0.301020000000     0.946120000000    -0.28062    
O346     O      0.776850000000     0.180870000000     0.649830000000    -0.276275   
O347     O      0.173920000000     0.412290000000     0.843050000000    -0.272721   
O348     O      0.256590000000     0.404730000000     0.589500000000    -0.275083   
O349     O      0.992030000000     0.325930000000     0.591960000000    -0.270827   
O350     O      0.291640000000     0.305640000000     0.705420000000    -0.273561   
O351     O      0.617960000000     0.108630000000     0.814860000000    -0.271395   
O352     O      0.433420000000     0.940670000000     0.565620000000    -0.273941   
O353     O      0.733660000000     0.051950000000     0.532440000000    -0.270829   
O354     O      0.256900000000     0.966150000000     0.779270000000    -0.266809   
O355     O      0.092060000000     0.841400000000     0.483590000000    -0.277489   
O356     O      0.311440000000     0.855320000000     0.934380000000    -0.272913   
O357     O      0.755240000000     0.595480000000     0.935760000000    -0.275831   
O358     O      0.847040000000     0.592510000000     0.752590000000    -0.272047   
O359     O      0.715460000000     0.680600000000     0.806500000000    -0.270319   
O360     O      0.972300000000     0.666400000000     0.873350000000    -0.270265   
V1       V      0.839860000000     0.637110000000     0.348210000000     1.42135    
V2       V      0.845870000000     0.709420000000     0.338260000000     1.39698    
V3       V      0.191370000000     0.824170000000     0.389210000000     1.41978    
V4       V      0.181040000000     0.888490000000     0.396420000000     1.38665    
V5       V      0.518000000000     0.990440000000     0.480290000000     1.40141    
V6       V      0.527840000000     0.064810000000     0.972980000000     1.38186    
V7       V      0.159970000000     0.287830000000     0.183980000000     1.39284    
V8       V      0.173240000000     0.363650000000     0.177890000000     1.40128    
V9       V      0.868300000000     0.156560000000     0.053010000000     1.40204    
V10      V      0.861420000000     0.222760000000     0.060970000000     1.39433    
V11      V      0.516130000000     0.460460000000     0.244140000000     1.39777    
V12      V      0.506020000000     0.525030000000     0.250720000000     1.40881    
V13      V      0.211610000000     0.363160000000     0.427030000000     1.39772    
V14      V      0.144130000000     0.291450000000     0.436900000000     1.38591    
V15      V      0.386360000000     0.195630000000     0.345050000000     1.39575    
V16      V      0.314640000000     0.127350000000     0.336690000000     1.39126    
V17      V      0.062550000000     0.549490000000     0.498700000000     1.39477    
V18      V      0.987870000000     0.485330000000     0.989930000000     1.39239    
V19      V      0.733710000000     0.883950000000     0.153810000000     1.38423    
V20      V      0.658570000000     0.819610000000     0.147640000000     1.40887    
V21      V      0.895070000000     0.710320000000     0.087100000000     1.38863    
V22      V      0.827020000000     0.637360000000     0.089980000000     1.41389    
V23      V      0.559780000000     0.063850000000     0.221470000000     1.39412    
V24      V      0.497820000000     0.988100000000     0.229920000000     1.38582    
V25      V      0.316850000000     0.190080000000     0.086030000000     1.39056    
V26      V      0.387490000000     0.190890000000     0.094570000000     1.4037     
V27      V      0.506450000000     0.525440000000     0.001170000000     1.40727    
V28      V      0.571280000000     0.515140000000     0.494580000000     1.39509    
V29      V      0.139850000000     0.844940000000     0.146190000000     1.38368    
V30      V      0.207990000000     0.841430000000     0.136160000000     1.39865    
V31      V      0.988770000000     0.508880000000     0.239580000000     1.40643    
V32      V      0.063410000000     0.518320000000     0.247180000000     1.39646    
V33      V      0.822430000000     0.182290000000     0.310190000000     1.40857    
V34      V      0.887880000000     0.173550000000     0.301590000000     1.38957    
V35      V      0.661980000000     0.839570000000     0.394630000000     1.4099     
V36      V      0.738150000000     0.853450000000     0.403160000000     1.38857    
V37      V      0.839870000000     0.637110000000     0.848210000000     1.42134    
V38      V      0.845870000000     0.709420000000     0.838260000000     1.39701    
V39      V      0.191370000000     0.824170000000     0.889210000000     1.41973    
V40      V      0.181040000000     0.888490000000     0.896420000000     1.38668    
V41      V      0.518000000000     0.990440000000     0.980290000000     1.40121    
V42      V      0.527840000000     0.064810000000     0.472980000000     1.38168    
V43      V      0.159970000000     0.287830000000     0.683980000000     1.39281    
V44      V      0.173240000000     0.363650000000     0.677890000000     1.40134    
V45      V      0.868300000000     0.156560000000     0.553010000000     1.40192    
V46      V      0.861430000000     0.222760000000     0.560970000000     1.3943     
V47      V      0.516130000000     0.460460000000     0.744140000000     1.39764    
V48      V      0.506020000000     0.525030000000     0.750720000000     1.40884    
V49      V      0.211610000000     0.363160000000     0.927030000000     1.39773    
V50      V      0.144130000000     0.291450000000     0.936900000000     1.38589    
V51      V      0.386360000000     0.195630000000     0.845050000000     1.39576    
V52      V      0.314640000000     0.127350000000     0.836680000000     1.3913     
V53      V      0.062550000000     0.549500000000     0.998700000000     1.39423    
V54      V      0.987860000000     0.485330000000     0.489930000000     1.39262    
V55      V      0.733710000000     0.883950000000     0.653810000000     1.38409    
V56      V      0.658570000000     0.819610000000     0.647640000000     1.40859    
V57      V      0.895070000000     0.710320000000     0.587090000000     1.38858    
V58      V      0.827020000000     0.637360000000     0.589980000000     1.4139     
V59      V      0.559780000000     0.063850000000     0.721470000000     1.3941     
V60      V      0.497820000000     0.988100000000     0.729920000000     1.38585    
V61      V      0.316850000000     0.190080000000     0.586020000000     1.39056    
V62      V      0.387490000000     0.190890000000     0.594570000000     1.40374    
V63      V      0.506450000000     0.525440000000     0.501170000000     1.40689    
V64      V      0.571280000000     0.515140000000     0.994570000000     1.39449    
V65      V      0.139850000000     0.844940000000     0.646190000000     1.38364    
V66      V      0.207990000000     0.841430000000     0.636160000000     1.39884    
V67      V      0.988770000000     0.508880000000     0.739570000000     1.40664    
V68      V      0.063410000000     0.518320000000     0.747180000000     1.39656    
V69      V      0.822430000000     0.182290000000     0.810190000000     1.40835    
V70      V      0.887880000000     0.173550000000     0.801590000000     1.38962    
V71      V      0.661980000000     0.839570000000     0.894630000000     1.4095     
V72      V      0.738150000000     0.853450000000     0.903160000000     1.38863    


