data_structure

_audit_creation_method RASPA-1.0
_audit_creation_date 2023-5-22
_audit_author_name 'Poobodin Mano'

_cell_length_a    38.0705
_cell_length_b    42.7952
_cell_length_c    27.9795
_cell_angle_alpha 89.9998
_cell_angle_beta  90
_cell_angle_gamma 90
_cell_volume      45585.2

_symmetry_cell_setting          triclinic
_symmetry_space_group_name_Hall 'P 1'
_symmetry_space_group_name_H-M  'P 1'
_symmetry_Int_Tables_number     1

_symmetry_equiv_pos_as_xyz 'x,y,z'

loop_
_atom_site_label
_atom_site_type_symbol
_atom_site_fract_x
_atom_site_fract_y
_atom_site_fract_z
_atom_site_charge
C1       C      0.396290000000     0.023010000000     0.137120000000     0.469413   
C2       C      0.524640000000     0.013790000000     0.182590000000     0.472538   
C3       C      0.478110000000     0.021430000000     0.072520000000     0.470192   
C4       C      0.444660000000     0.015320000000     0.247630000000     0.47028    
C5       C      0.323770000000     0.022950000000     0.677850000000     0.470935   
C6       C      0.453950000000     0.014020000000     0.642860000000     0.470488   
C7       C      0.374210000000     0.016210000000     0.573370000000     0.470196   
C8       C      0.401890000000     0.020810000000     0.750470000000     0.469387   
C9       C      0.095460000000     0.775810000000     0.038240000000     0.474826   
C10      C      0.091440000000     0.661600000000     0.086130000000     0.4749     
C11      C      0.100660000000     0.703080000000     0.974870000000     0.474346   
C12      C      0.086130000000     0.734970000000     0.148150000000     0.477207   
C13      C      0.088620000000     0.732500000000     0.541050000000     0.475641   
C14      C      0.098030000000     0.615000000000     0.560060000000     0.476009   
C15      C      0.086890000000     0.666780000000     0.461210000000     0.477614   
C16      C      0.100030000000     0.680010000000     0.640310000000     0.474728   
C17      C      0.805660000000     0.998810000000     0.887530000000     0.48191    
C18      C      0.684030000000     0.006870000000     0.959790000000     0.471106   
C19      C      0.717230000000     0.001160000000     0.839920000000     0.469374   
C20      C      0.770330000000     0.004950000000     0.006050000000     0.470103   
C21      C      0.766590000000     0.014260000000     0.393470000000     0.468752   
C22      C      0.634940000000     0.009470000000     0.419870000000     0.469997   
C23      C      0.691150000000     0.015030000000     0.316400000000     0.469119   
C24      C      0.711400000000     0.008500000000     0.495400000000     0.468061   
C25      C      0.167210000000     0.059130000000     0.005250000000     0.472949   
C26      C      0.039300000000     0.041460000000     0.964240000000     0.47295    
C27      C      0.091550000000     0.108320000000     0.991360000000     0.473996   
C28      C      0.114790000000     0.992260000000     0.978410000000     0.48494    
C29      C      0.128570000000     0.987350000000     0.494240000000     0.473903   
C30      C      0.011000000000     0.015970000000     0.422540000000     0.472072   
C31      C      0.085170000000     0.058700000000     0.466620000000     0.472355   
C32      C      0.055090000000     0.944050000000     0.450090000000     0.47261    
C33      C      0.106680000000     0.324060000000     0.072970000000     0.475497   
C34      C      0.095960000000     0.440160000000     0.039500000000     0.474864   
C35      C      0.091540000000     0.369620000000     0.969130000000     0.473536   
C36      C      0.110860000000     0.393050000000     0.144820000000     0.473001   
C37      C      0.094460000000     0.279000000000     0.537310000000     0.475391   
C38      C      0.100720000000     0.393770000000     0.580880000000     0.475479   
C39      C      0.107510000000     0.350690000000     0.471420000000     0.473873   
C40      C      0.088060000000     0.323660000000     0.645890000000     0.472584   
C41      C      0.051130000000     0.351120000000     0.906220000000     0.0163143  
C42      C      0.114760000000     0.318030000000     0.724960000000     0.0176877  
C43      C      0.047440000000     0.324080000000     0.714110000000     0.0159658  
C44      C      0.107180000000     0.304440000000     0.774230000000    -0.104628   
C45      C      0.045240000000     0.357080000000     0.852680000000    -0.104805   
C46      C      0.042900000000     0.311700000000     0.765300000000    -0.104507   
C47      C      0.076450000000     0.345050000000     0.824830000000     0.0209868  
C48      C      0.075020000000     0.320170000000     0.794080000000     0.020489   
C49      C      0.117430000000     0.353330000000     0.892370000000     0.0173618  
C50      C      0.110330000000     0.360590000000     0.839920000000    -0.10435    
C51      C      0.148600000000     0.367180000000     0.407710000000     0.0155117  
C52      C      0.084620000000     0.398290000000     0.224380000000     0.0179539  
C53      C      0.151610000000     0.391380000000     0.212970000000     0.0154451  
C54      C      0.092740000000     0.413280000000     0.272510000000    -0.104732   
C55      C      0.153340000000     0.360880000000     0.353910000000    -0.104191   
C56      C      0.156810000000     0.404110000000     0.263920000000    -0.104281   
C57      C      0.122280000000     0.373710000000     0.326380000000     0.0204543  
C58      C      0.124450000000     0.397250000000     0.293290000000     0.0203992  
C59      C      0.082240000000     0.369230000000     0.395440000000     0.0174573  
C60      C      0.087860000000     0.360100000000     0.343400000000    -0.10408    
C61      C      0.095240000000     0.110200000000     0.429490000000     0.0179056  
C62      C      0.114860000000     0.225460000000     0.553660000000     0.0171257  
C63      C      0.063500000000     0.235350000000     0.498110000000     0.0180421  
C64      C      0.127610000000     0.199150000000     0.521140000000    -0.103173   
C65      C      0.076940000000     0.141170000000     0.441220000000    -0.103613   
C66      C      0.077050000000     0.210180000000     0.463630000000    -0.104381   
C67      C      0.092330000000     0.154870000000     0.486500000000     0.0177655  
C68      C      0.097700000000     0.186130000000     0.491550000000     0.0186381  
C69      C      0.108760000000     0.101270000000     0.516670000000     0.0172119  
C70      C      0.093210000000     0.133140000000     0.529390000000    -0.10252    
C71      C      0.080690000000     0.273630000000     0.099410000000     0.0177575  
C72      C      0.100860000000     0.162260000000     0.961710000000     0.0168272  
C73      C      0.061220000000     0.152340000000     0.031540000000     0.0179522  
C74      C      0.121340000000     0.187000000000     0.990010000000    -0.102398   
C75      C      0.069390000000     0.249170000000     0.062590000000    -0.102297   
C76      C      0.080280000000     0.176930000000     0.061360000000    -0.102491   
C77      C      0.100840000000     0.231570000000     0.042100000000     0.0168436  
C78      C      0.098730000000     0.200740000000     0.029670000000     0.0171962  
C79      C      0.141270000000     0.275280000000     0.065410000000     0.0174268  
C80      C      0.131550000000     0.251810000000     0.026210000000    -0.10249    
C81      C      0.969340000000     0.014400000000     0.354710000000     0.00609947 
C82      C      0.821710000000     0.042240000000     0.410520000000     0.0163365  
C83      C      0.822620000000     0.988800000000     0.370780000000     0.0171809  
C84      C      0.851450000000     0.052750000000     0.377920000000    -0.102171   
C85      C      0.932700000000     0.999360000000     0.355300000000    -0.0931435  
C86      C      0.853290000000     0.999500000000     0.338750000000    -0.0942952  
C87      C      0.906870000000     0.020490000000     0.380910000000     0.0141515  
C88      C      0.873570000000     0.024890000000     0.364390000000     0.0140645  
C89      C      0.955300000000     0.045340000000     0.428770000000     0.0167187  
C90      C      0.918220000000     0.031850000000     0.430020000000    -0.100991   
C91      C      0.725390000000     0.035270000000     0.571550000000     0.0175778  
C92      C      0.692500000000     0.971130000000     0.771620000000     0.0202958  
C93      C      0.687550000000     0.028790000000     0.773330000000     0.018119   
C94      C      0.706950000000     0.971260000000     0.720400000000    -0.0976222  
C95      C      0.704120000000     0.034690000000     0.617820000000    -0.101474   
C96      C      0.703090000000     0.032470000000     0.723380000000    -0.100651   
C97      C      0.707060000000     0.003720000000     0.644760000000     0.0131387  
C98      C      0.703230000000     0.002400000000     0.693790000000     0.0129776  
C99      C      0.726970000000     0.977220000000     0.567110000000     0.0197278  
C100     C      0.706640000000     0.974080000000     0.614170000000    -0.0981196  
C101     C      0.689910000000     0.045960000000     0.241100000000     0.0170509  
C102     C      0.783830000000     0.978340000000     0.082480000000     0.0213644  
C103     C      0.787620000000     0.035660000000     0.077600000000     0.0173289  
C104     C      0.752950000000     0.978930000000     0.117360000000    -0.09632    
C105     C      0.721530000000     0.044500000000     0.207040000000    -0.100527   
C106     C      0.757970000000     0.040480000000     0.114040000000    -0.0995232  
C107     C      0.726300000000     0.013030000000     0.181470000000     0.0129156  
C108     C      0.746860000000     0.010830000000     0.141050000000     0.0115851  
C109     C      0.681690000000     0.988740000000     0.238450000000     0.0209196  
C110     C      0.714080000000     0.983450000000     0.207420000000    -0.0968965  
C111     C      0.857830000000     0.022990000000     0.849030000000     0.0146797  
C112     C      0.981590000000     0.017820000000     0.983310000000     0.0111847  
C113     C      0.988780000000     0.052950000000     0.911560000000     0.0167254  
C114     C      0.961880000000     0.993660000000     0.952650000000    -0.0943368  
C115     C      0.888050000000     0.033620000000     0.881250000000    -0.100524   
C116     C      0.969410000000     0.029400000000     0.880310000000    -0.101413   
C117     C      0.909960000000     0.006190000000     0.899500000000     0.0130752  
C118     C      0.944620000000     0.009940000000     0.910500000000     0.013509   
C119     C      0.860930000000     0.968790000000     0.881070000000     0.0169436  
C120     C      0.889710000000     0.977710000000     0.916840000000    -0.0979364  
C121     C      0.134500000000     0.566950000000     0.558700000000     0.0158789  
C122     C      0.069870000000     0.443260000000     0.599560000000     0.0179318  
C123     C      0.135130000000     0.438890000000     0.611020000000     0.0168677  
C124     C      0.074460000000     0.474250000000     0.573500000000    -0.103321   
C125     C      0.140360000000     0.542300000000     0.597830000000    -0.103276   
C126     C      0.140630000000     0.471240000000     0.588430000000    -0.103289   
C127     C      0.107800000000     0.522010000000     0.602150000000     0.017889   
C128     C      0.107360000000     0.490860000000     0.590930000000     0.0185825  
C129     C      0.068780000000     0.563870000000     0.572160000000     0.0170379  
C130     C      0.075090000000     0.540860000000     0.612920000000    -0.103234   
C131     C      0.115070000000     0.782960000000     0.516130000000     0.0164674  
C132     C      0.022750000000     0.897040000000     0.477890000000     0.0178486  
C133     C      0.066660000000     0.892690000000     0.412080000000     0.016807   
C134     C      0.041810000000     0.872200000000     0.507320000000    -0.102074   
C135     C      0.102400000000     0.802520000000     0.473340000000    -0.103138   
C136     C      0.087440000000     0.867700000000     0.439430000000    -0.102152   
C137     C      0.068970000000     0.820100000000     0.486220000000     0.0177119  
C138     C      0.064270000000     0.851040000000     0.475770000000     0.0166821  
C139     C      0.053830000000     0.781170000000     0.549460000000     0.0179768  
C140     C      0.040020000000     0.799750000000     0.506920000000    -0.102874   
C141     C      0.057510000000     0.613950000000     0.107700000000     0.0179561  
C142     C      0.123980000000     0.490610000000     0.017910000000     0.0185763  
C143     C      0.059200000000     0.487280000000     0.025110000000     0.0177032  
C144     C      0.126280000000     0.518160000000     0.052480000000    -0.101665   
C145     C      0.056230000000     0.584280000000     0.076960000000    -0.101155   
C146     C      0.057720000000     0.516030000000     0.057810000000    -0.101347   
C147     C      0.090950000000     0.566240000000     0.073900000000     0.0163251  
C148     C      0.091460000000     0.535560000000     0.058660000000     0.0164225  
C149     C      0.122470000000     0.613210000000     0.110960000000     0.018745   
C150     C      0.125120000000     0.584910000000     0.077890000000    -0.101403   
C151     C      0.139480000000     0.698660000000     0.904520000000     0.0156345  
C152     C      0.072190000000     0.681000000000     0.719970000000     0.0171609  
C153     C      0.138960000000     0.680520000000     0.711110000000     0.0157099  
C154     C      0.076400000000     0.702550000000     0.763030000000    -0.104089   
C155     C      0.144190000000     0.676610000000     0.861690000000    -0.104077   
C156     C      0.141880000000     0.700640000000     0.756390000000    -0.104185   
C157     C      0.111860000000     0.678430000000     0.830430000000     0.0200337  
C158     C      0.110390000000     0.694520000000     0.788090000000     0.0201314  
C159     C      0.072750000000     0.691000000000     0.897650000000     0.0171984  
C160     C      0.079640000000     0.667840000000     0.857300000000    -0.104131   
C161     C      0.049780000000     0.662610000000     0.388250000000     0.0178754  
C162     C      0.112930000000     0.750100000000     0.225290000000     0.0209007  
C163     C      0.048550000000     0.745540000000     0.219070000000     0.0180615  
C164     C      0.116340000000     0.723340000000     0.260770000000    -0.101125   
C165     C      0.047760000000     0.690370000000     0.353540000000    -0.101147   
C166     C      0.046980000000     0.720430000000     0.258280000000    -0.100893   
C167     C      0.081940000000     0.696980000000     0.326170000000     0.0161495  
C168     C      0.081620000000     0.714670000000     0.285090000000     0.0162657  
C169     C      0.114460000000     0.659990000000     0.381810000000     0.0201901  
C170     C      0.116770000000     0.689120000000     0.350770000000    -0.101304   
C171     C      0.138970000000     0.944210000000     0.014420000000     0.0188031  
C172     C      0.068680000000     0.822050000000     0.999140000000     0.0163808  
C173     C      0.124390000000     0.826930000000     0.048130000000     0.0179576  
C174     C      0.084450000000     0.843630000000     0.960530000000    -0.103842   
C175     C      0.117950000000     0.915310000000     0.028340000000    -0.102955   
C176     C      0.140520000000     0.847550000000     0.009670000000    -0.103426   
C177     C      0.108350000000     0.896310000000     0.984430000000     0.0187836  
C178     C      0.111730000000     0.864670000000     0.983300000000     0.0183308  
C179     C      0.112970000000     0.943250000000     0.931590000000     0.0174323  
C180     C      0.090830000000     0.914330000000     0.944320000000    -0.103751   
C181     C      0.506260000000     0.981800000000     0.622470000000     0.0204058  
C182     C      0.578440000000     0.036700000000     0.434560000000     0.0185383  
C183     C      0.580660000000     0.979120000000     0.437190000000     0.020296   
C184     C      0.567290000000     0.039600000000     0.486800000000    -0.100285   
C185     C      0.517540000000     0.979590000000     0.569910000000    -0.0972286  
C186     C      0.567580000000     0.978030000000     0.489080000000    -0.0970702  
C187     C      0.533300000000     0.009790000000     0.549460000000     0.012768   
C188     C      0.553170000000     0.009120000000     0.508260000000     0.0128577  
C189     C      0.510670000000     0.039370000000     0.622780000000     0.0184427  
C190     C      0.520340000000     0.040980000000     0.569850000000    -0.100487   
C191     C      0.269510000000     0.051330000000     0.658200000000     0.0167125  
C192     C      0.163400000000     0.962910000000     0.558740000000     0.0173297  
C193     C      0.192590000000     0.995990000000     0.496790000000     0.0256297  
C194     C      0.176100000000     0.984260000000     0.598860000000    -0.0922664  
C195     C      0.255710000000     0.039980000000     0.609730000000    -0.10114    
C196     C      0.205760000000     0.018960000000     0.535060000000    -0.106547   
C197     C      0.234300000000     0.010070000000     0.615400000000     0.0135108  
C198     C      0.208320000000     0.002890000000     0.583610000000     0.0125125  
C199     C      0.266010000000     0.998370000000     0.693570000000     0.0273177  
C200     C      0.249570000000     0.984800000000     0.648120000000    -0.0997237  
C201     C      0.577920000000     0.981330000000     0.191090000000     0.021717   
C202     C      0.639230000000     0.038600000000     0.001940000000     0.0165579  
C203     C      0.633930000000     0.980900000000     0.999850000000     0.0206341  
C204     C      0.643230000000     0.038740000000     0.056470000000    -0.100445   
C205     C      0.596050000000     0.978570000000     0.142430000000    -0.0963947  
C206     C      0.638260000000     0.978300000000     0.054070000000    -0.0972539  
C207     C      0.610610000000     0.009270000000     0.121910000000     0.0137142  
C208     C      0.628270000000     0.008900000000     0.079030000000     0.0128003  
C209     C      0.582840000000     0.038370000000     0.193630000000     0.0183034  
C210     C      0.600890000000     0.040710000000     0.144900000000    -0.0993655  
C211     C      0.407240000000     0.993740000000     0.828480000000     0.0206692  
C212     C      0.493580000000     0.052410000000     0.000250000000     0.0174945  
C213     C      0.496310000000     0.994830000000     0.997720000000     0.0219564  
C214     C      0.468910000000     0.053990000000     0.956930000000    -0.100244   
C215     C      0.440260000000     0.992290000000     0.859410000000    -0.0985443  
C216     C      0.470190000000     0.992320000000     0.956550000000    -0.0971886  
C217     C      0.447210000000     0.022840000000     0.886090000000     0.0133951  
C218     C      0.463660000000     0.023080000000     0.930020000000     0.0128885  
C219     C      0.409320000000     0.051830000000     0.824860000000     0.0168255  
C220     C      0.441690000000     0.052890000000     0.857410000000    -0.101545   
C221     C      0.441440000000     0.041320000000     0.326480000000     0.017964   
C222     C      0.356580000000     0.986150000000     0.501160000000     0.0205944  
C223     C      0.357250000000     0.043840000000     0.499070000000     0.0192375  
C224     C      0.379290000000     0.983660000000     0.456000000000    -0.0972711  
C225     C      0.408950000000     0.044490000000     0.357920000000    -0.101803   
C226     C      0.382170000000     0.045260000000     0.456560000000    -0.100503   
C227     C      0.400410000000     0.014180000000     0.384280000000     0.0134818  
C228     C      0.385590000000     0.014440000000     0.429210000000     0.0129035  
C229     C      0.434270000000     0.983580000000     0.320570000000     0.0200083  
C230     C      0.402650000000     0.984260000000     0.354500000000    -0.0985604  
C231     C      0.212730000000     0.078510000000     0.061200000000     0.0174155  
C232     C      0.343990000000     0.000890000000     0.096940000000     0.00707693 
C233     C      0.339950000000     0.051630000000     0.142340000000     0.0173485  
C234     C      0.324370000000     0.015350000000     0.054320000000    -0.106325   
C235     C      0.238720000000     0.057770000000     0.088130000000    -0.101778   
C236     C      0.319490000000     0.066520000000     0.101310000000    -0.102897   
C237     C      0.267600000000     0.045770000000     0.055330000000     0.0161968  
C238     C      0.301080000000     0.041820000000     0.071500000000     0.0183639  
C239     C      0.229870000000     0.054020000000     0.983060000000     0.0167451  
C240     C      0.255290000000     0.031650000000     0.008460000000    -0.102569   
H1       H      0.019880000000     0.346330000000     0.842870000000     0.0412417  
H2       H      0.125380000000     0.342090000000     0.729120000000     0.0266308  
H3       H      0.123690000000     0.328040000000     0.895990000000     0.0238662  
H4       H      0.133410000000     0.354470000000     0.817770000000     0.042139   
H5       H      0.130440000000     0.305980000000     0.797950000000     0.0413889  
H6       H      0.017810000000     0.320550000000     0.779730000000     0.0409367  
H7       H      0.030110000000     0.363500000000     0.926320000000     0.0318342  
H8       H      0.135800000000     0.303740000000     0.708090000000     0.0304594  
H9       H      0.107280000000     0.386310000000     0.835950000000     0.0498284  
H10      H      0.040230000000     0.285830000000     0.764060000000     0.0466934  
H11      H      0.141130000000     0.366650000000     0.903530000000     0.0318902  
H12      H      0.041660000000     0.349570000000     0.714050000000     0.0271082  
H13      H      0.042570000000     0.382640000000     0.846480000000     0.0482986  
H14      H      0.102020000000     0.278970000000     0.770330000000     0.0476026  
H15      H      0.027280000000     0.312850000000     0.691010000000     0.0309699  
H16      H      0.047830000000     0.325700000000     0.913270000000     0.0254102  
H17      H      0.178960000000     0.370820000000     0.343400000000     0.0411915  
H18      H      0.074560000000     0.374180000000     0.230240000000     0.0266516  
H19      H      0.078750000000     0.394990000000     0.397760000000     0.0250719  
H20      H      0.064690000000     0.366500000000     0.321640000000     0.0418813  
H21      H      0.069490000000     0.413270000000     0.296330000000     0.0416316  
H22      H      0.181510000000     0.394480000000     0.278390000000     0.0409521  
H23      H      0.168900000000     0.353640000000     0.427410000000     0.0321895  
H24      H      0.063130000000     0.411870000000     0.207200000000     0.0305175  
H25      H      0.089430000000     0.334180000000     0.341140000000     0.0497475  
H26      H      0.160670000000     0.429840000000     0.262010000000     0.0465947  
H27      H      0.057430000000     0.358170000000     0.407810000000     0.0318888  
H28      H      0.156580000000     0.365760000000     0.213460000000     0.0266948  
H29      H      0.154930000000     0.335240000000     0.347890000000     0.0480862  
H30      H      0.098790000000     0.438420000000     0.266600000000     0.0485441  
H31      H      0.172070000000     0.401860000000     0.189550000000     0.0315581  
H32      H      0.153930000000     0.392350000000     0.414500000000     0.0250897  
H33      H      0.080830000000     0.156990000000     0.410150000000     0.0415287  
H34      H      0.099130000000     0.214900000000     0.583010000000     0.0228485  
H35      H      0.137650000000     0.104090000000     0.512550000000     0.0213556  
H36      H      0.107610000000     0.142780000000     0.560460000000     0.0414328  
H37      H      0.141580000000     0.181310000000     0.542640000000     0.0413073  
H38      H      0.053860000000     0.199880000000     0.445390000000     0.0416323  
H39      H      0.082100000000     0.099580000000     0.397900000000     0.0301182  
H40      H      0.137970000000     0.236990000000     0.570410000000     0.0308731  
H41      H      0.065690000000     0.129590000000     0.541490000000     0.0499826  
H42      H      0.094270000000     0.221000000000     0.436150000000     0.0486904  
H43      H      0.104400000000     0.084810000000     0.546860000000     0.0298993  
H44      H      0.043380000000     0.224790000000     0.522020000000     0.0260089  
H45      H      0.048310000000     0.137220000000     0.446160000000     0.0485512  
H46      H      0.147480000000     0.208910000000     0.496140000000     0.0497309  
H47      H      0.050540000000     0.254060000000     0.476860000000     0.029595   
H48      H      0.123070000000     0.115010000000     0.419830000000     0.0250329  
H49      H      0.049090000000     0.234180000000     0.079000000000     0.0410378  
H50      H      0.079680000000     0.174140000000     0.941200000000     0.0243786  
H51      H      0.151810000000     0.262160000000     0.096610000000     0.0235809  
H52      H      0.155450000000     0.237650000000     0.019070000000     0.0411457  
H53      H      0.129690000000     0.205130000000     0.963940000000     0.0413992  
H54      H      0.061460000000     0.186960000000     0.087170000000     0.0411718  
H55      H      0.057620000000     0.287990000000     0.109910000000     0.0310848  
H56      H      0.118950000000     0.151040000000     0.935680000000     0.0319794  
H57      H      0.124290000000     0.264500000000     0.992970000000     0.049021   
H58      H      0.100690000000     0.164990000000     0.083140000000     0.0506613  
H59      H      0.162530000000     0.290740000000     0.051940000000     0.031942   
H60      H      0.038550000000     0.163820000000     0.013600000000     0.0227411  
H61      H      0.056230000000     0.261440000000     0.032500000000     0.0506489  
H62      H      0.145210000000     0.176260000000     0.005950000000     0.0483723  
H63      H      0.050460000000     0.133980000000     0.055530000000     0.0315002  
H64      H      0.089990000000     0.261140000000     0.131900000000     0.0226531  
H65      H      0.924910000000     0.995430000000     0.317500000000     0.0407774  
H66      H      0.833100000000     0.034600000000     0.445210000000     0.0224828  
H67      H      0.954330000000     0.068000000000     0.409330000000     0.0225473  
H68      H      0.900380000000     0.049360000000     0.446120000000     0.0414892  
H69      H      0.866740000000     0.072030000000     0.394340000000     0.0409689  
H70      H      0.869500000000     0.978740000000     0.329980000000     0.0402667  
H71      H      0.988300000000     0.997420000000     0.339220000000     0.0367815  
H72      H      0.804570000000     0.062670000000     0.418090000000     0.0320619  
H73      H      0.918070000000     0.011420000000     0.454550000000     0.0496497  
H74      H      0.842690000000     0.008980000000     0.304690000000     0.042811   
H75      H      0.964100000000     0.050380000000     0.465870000000     0.0311268  
H76      H      0.833510000000     0.975550000000     0.401620000000     0.0272512  
H77      H      0.933840000000     0.976420000000     0.373850000000     0.048035   
H78      H      0.839810000000     0.062700000000     0.344790000000     0.0488964  
H79      H      0.805750000000     0.972560000000     0.349900000000     0.0311239  
H80      H      0.968640000000     0.035310000000     0.331100000000     0.026248   
H81      H      0.714180000000     0.054700000000     0.638920000000     0.0403726  
H82      H      0.663420000000     0.968760000000     0.769800000000     0.0238498  
H83      H      0.755560000000     0.976550000000     0.575310000000     0.0244838  
H84      H      0.718760000000     0.953930000000     0.632810000000     0.040427   
H85      H      0.692580000000     0.952380000000     0.701500000000     0.0404233  
H86      H      0.686910000000     0.050830000000     0.706020000000     0.040329   
H87      H      0.719030000000     0.057090000000     0.551820000000     0.0315576  
H88      H      0.702790000000     0.950250000000     0.790630000000     0.031526   
H89      H      0.678850000000     0.968090000000     0.606110000000     0.0485366  
H90      H      0.730530000000     0.041090000000     0.726560000000     0.0487682  
H91      H      0.720970000000     0.956620000000     0.544330000000     0.0316966  
H92      H      0.658510000000     0.026770000000     0.769860000000     0.0219518  
H93      H      0.676000000000     0.039040000000     0.609470000000     0.0483402  
H94      H      0.735280000000     0.965020000000     0.721540000000     0.0488013  
H95      H      0.692990000000     0.050300000000     0.794300000000     0.0316737  
H96      H      0.753780000000     0.036260000000     0.580970000000     0.0221543  
H97      H      0.717680000000     0.063780000000     0.181010000000     0.039701   
H98      H      0.808670000000     0.978570000000     0.103480000000     0.0222938  
H99      H      0.658900000000     0.992500000000     0.214290000000     0.025318   
H100     H      0.706690000000     0.964720000000     0.181860000000     0.0396444  
H101     H      0.758660000000     0.960700000000     0.144540000000     0.0397531  
H102     H      0.767440000000     0.058670000000     0.139250000000     0.0399063  
H103     H      0.692580000000     0.066690000000     0.264760000000     0.0311708  
H104     H      0.783310000000     0.956260000000     0.061540000000     0.0301419  
H105     H      0.735910000000     0.974790000000     0.230220000000     0.0501295  
H106     H      0.734610000000     0.049770000000     0.094940000000     0.0468159  
H107     H      0.676260000000     0.967460000000     0.260000000000     0.0306951  
H108     H      0.812980000000     0.034650000000     0.097320000000     0.0209972  
H109     H      0.745800000000     0.049390000000     0.227810000000     0.0477585  
H110     H      0.728680000000     0.972220000000     0.097810000000     0.0485856  
H111     H      0.788860000000     0.056080000000     0.053090000000     0.0308875  
H112     H      0.665830000000     0.049310000000     0.219260000000     0.0213182  
H113     H      0.903300000000     0.051490000000     0.861670000000     0.0409273  
H114     H      0.961990000000     0.033220000000     0.001060000000     0.0259875  
H115     H      0.873610000000     0.960700000000     0.847430000000     0.0246746  
H116     H      0.907320000000     0.957130000000     0.920650000000     0.0408626  
H117     H      0.942660000000     0.981760000000     0.976290000000     0.0411821  
H118     H      0.956840000000     0.041460000000     0.849820000000     0.040458   
H119     H      0.840040000000     0.043030000000     0.841670000000     0.0309168  
H120     H      0.996420000000     0.005250000000     0.011650000000     0.030863   
H121     H      0.877690000000     0.982920000000     0.952170000000     0.0500566  
H122     H      0.989120000000     0.013380000000     0.864190000000     0.0487477  
H123     H      0.845450000000     0.948990000000     0.895820000000     0.0319877  
H124     H      0.969410000000     0.070440000000     0.924630000000     0.0232415  
H125     H      0.876660000000     0.045620000000     0.912900000000     0.050819   
H126     H      0.980660000000     0.975830000000     0.939170000000     0.0473096  
H127     H      0.008390000000     0.065690000000     0.889490000000     0.0316546  
H128     H      0.869170000000     0.015340000000     0.814300000000     0.0217531  
H129     H      0.164610000000     0.529470000000     0.588430000000     0.0407514  
H130     H      0.065010000000     0.448110000000     0.638060000000     0.0236405  
H131     H      0.063150000000     0.550510000000     0.538920000000     0.0245064  
H132     H      0.051310000000     0.526910000000     0.620610000000     0.0410085  
H133     H      0.049840000000     0.487720000000     0.576470000000     0.0416171  
H134     H      0.162730000000     0.481880000000     0.608420000000     0.0409003  
H135     H      0.157220000000     0.583250000000     0.558820000000     0.03253    
H136     H      0.046230000000     0.431320000000     0.585100000000     0.0319346  
H137     H      0.079760000000     0.554470000000     0.646190000000     0.0497226  
H138     H      0.148550000000     0.468550000000     0.550420000000     0.0483983  
H139     H      0.045120000000     0.577980000000     0.580770000000     0.0321388  
H140     H      0.133870000000     0.441800000000     0.650510000000     0.0236504  
H141     H      0.145180000000     0.554230000000     0.632510000000     0.0480921  
H142     H      0.077740000000     0.469400000000     0.534710000000     0.0508137  
H143     H      0.158510000000     0.424240000000     0.603070000000     0.0320501  
H144     H      0.134400000000     0.554910000000     0.523460000000     0.0246714  
H145     H      0.124340000000     0.818370000000     0.463630000000     0.0413601  
H146     H      0.002410000000     0.885180000000     0.455830000000     0.0228965  
H147     H      0.060280000000     0.797860000000     0.578650000000     0.0230109  
H148     H      0.015840000000     0.812290000000     0.517320000000     0.0410882  
H149     H      0.022150000000     0.859940000000     0.529430000000     0.0413506  
H150     H      0.097850000000     0.851180000000     0.412250000000     0.0414678  
H151     H      0.137630000000     0.768350000000     0.504450000000     0.0314578  
H152     H      0.008980000000     0.913490000000     0.502270000000     0.0321544  
H153     H      0.031720000000     0.782970000000     0.478750000000     0.0505871  
H154     H      0.109930000000     0.878780000000     0.458260000000     0.0492267  
H155     H      0.032760000000     0.765480000000     0.562870000000     0.0314367  
H156     H      0.047220000000     0.880760000000     0.388650000000     0.0240132  
H157     H      0.097070000000     0.786930000000     0.442400000000     0.0481582  
H158     H      0.059660000000     0.884210000000     0.532840000000     0.0511856  
H159     H      0.085000000000     0.905910000000     0.388700000000     0.032891   
H160     H      0.124660000000     0.799150000000     0.544370000000     0.0245749  
H161     H      0.035160000000     0.569680000000     0.092850000000     0.0404357  
H162     H      0.121180000000     0.499980000000     0.980990000000     0.0229119  
H163     H      0.121130000000     0.604690000000     0.148500000000     0.0225192  
H164     H      0.146690000000     0.570380000000     0.092720000000     0.040654   
H165     H      0.147010000000     0.533620000000     0.037690000000     0.040715   
H166     H      0.035000000000     0.529880000000     0.044890000000     0.0404562  
H167     H      0.033950000000     0.628440000000     0.100020000000     0.0312988  
H168     H      0.149020000000     0.477300000000     0.019330000000     0.0316133  
H169     H      0.132840000000     0.592930000000     0.041590000000     0.0492563  
H170     H      0.052050000000     0.508200000000     0.094900000000     0.0484684  
H171     H      0.146770000000     0.627420000000     0.107470000000     0.0312587  
H172     H      0.055840000000     0.495310000000     0.987550000000     0.0226935  
H173     H      0.048210000000     0.590820000000     0.040090000000     0.0483087  
H174     H      0.135030000000     0.509550000000     0.088020000000     0.0493963  
H175     H      0.036670000000     0.471720000000     0.033520000000     0.0315679  
H176     H      0.055980000000     0.606860000000     0.145920000000     0.0223349  
H177     H      0.169210000000     0.682240000000     0.843790000000     0.0407975  
H178     H      0.068530000000     0.656610000000     0.732770000000     0.0249579  
H179     H      0.064740000000     0.713840000000     0.882090000000     0.0254544  
H180     H      0.056030000000     0.664410000000     0.834810000000     0.0413829  
H181     H      0.052760000000     0.701970000000     0.785990000000     0.0415365  
H182     H      0.167640000000     0.696070000000     0.772970000000     0.0410351  
H183     H      0.161110000000     0.694060000000     0.930280000000     0.0320745  
H184     H      0.047880000000     0.687930000000     0.700680000000     0.0317595  
H185     H      0.084770000000     0.644470000000     0.873290000000     0.0487407  
H186     H      0.141990000000     0.725710000000     0.745920000000     0.0481925  
H187     H      0.050240000000     0.682110000000     0.919040000000     0.031582   
H188     H      0.144220000000     0.655780000000     0.720940000000     0.0249134  
H189     H      0.147130000000     0.652290000000     0.875160000000     0.0473488  
H190     H      0.077910000000     0.727060000000     0.749980000000     0.0492669  
H191     H      0.160030000000     0.687840000000     0.685990000000     0.0323723  
H192     H      0.142660000000     0.723140000000     0.891880000000     0.0255635  
H193     H      0.025770000000     0.685060000000     0.328810000000     0.040566   
H194     H      0.108840000000     0.772160000000     0.245640000000     0.0211961  
H195     H      0.111420000000     0.639310000000     0.358020000000     0.0222532  
H196     H      0.137970000000     0.684330000000     0.324530000000     0.0406805  
H197     H      0.136180000000     0.730970000000     0.287460000000     0.0404123  
H198     H      0.026040000000     0.727900000000     0.283450000000     0.0405416  
H199     H      0.027160000000     0.663610000000     0.413320000000     0.0312621  
H200     H      0.137790000000     0.752630000000     0.204790000000     0.0300306  
H201     H      0.124800000000     0.709300000000     0.373270000000     0.0498754  
H202     H      0.038770000000     0.698020000000     0.241570000000     0.0480571  
H203     H      0.139420000000     0.656980000000     0.401920000000     0.0308873  
H204     H      0.045610000000     0.768840000000     0.236290000000     0.0222485  
H205     H      0.040790000000     0.711710000000     0.374120000000     0.0479498  
H206     H      0.126570000000     0.702430000000     0.241700000000     0.0508325  
H207     H      0.026040000000     0.742440000000     0.194220000000     0.031245   
H208     H      0.047290000000     0.640680000000     0.367160000000     0.0226215  
H209     H      0.132520000000     0.902060000000     0.055960000000     0.0422623  
H210     H      0.052110000000     0.836370000000     0.023470000000     0.0259316  
H211     H      0.137830000000     0.935350000000     0.914540000000     0.0256657  
H212     H      0.088320000000     0.899970000000     0.911400000000     0.0416716  
H213     H      0.062600000000     0.856850000000     0.943770000000     0.0415357  
H214     H      0.160850000000     0.863170000000     0.025010000000     0.0416554  
H215     H      0.143030000000     0.959140000000     0.046480000000     0.0315729  
H216     H      0.051400000000     0.804580000000     0.981420000000     0.0303749  
H217     H      0.064160000000     0.921710000000     0.955860000000     0.0486244  
H218     H      0.154540000000     0.832340000000     0.983710000000     0.0506544  
H219     H      0.098250000000     0.957590000000     0.905170000000     0.0314635  
H220     H      0.112410000000     0.842240000000     0.075830000000     0.0228548  
H221     H      0.093120000000     0.923040000000     0.045610000000     0.0517902  
H222     H      0.097180000000     0.829230000000     0.932370000000     0.04817    
H223     H      0.145570000000     0.813320000000     0.065840000000     0.0313715  
H224     H      0.165320000000     0.936450000000     0.001990000000     0.0225489  
H225     H      0.536630000000     0.960020000000     0.568170000000     0.0402493  
H226     H      0.554340000000     0.034910000000     0.412190000000     0.0225684  
H227     H      0.535350000000     0.037350000000     0.643880000000     0.0216448  
H228     H      0.540770000000     0.059390000000     0.567020000000     0.0403093  
H229     H      0.547050000000     0.058280000000     0.487650000000     0.0403938  
H230     H      0.547130000000     0.959550000000     0.490130000000     0.0403558  
H231     H      0.489400000000     0.961440000000     0.631520000000     0.0312435  
H232     H      0.592590000000     0.058230000000     0.423480000000     0.0314528  
H233     H      0.496920000000     0.048560000000     0.549130000000     0.0493423  
H234     H      0.589720000000     0.970680000000     0.512420000000     0.0489741  
H235     H      0.497610000000     0.061500000000     0.633580000000     0.0311632  
H236     H      0.557400000000     0.978060000000     0.413130000000     0.0242479  
H237     H      0.494250000000     0.973240000000     0.547990000000     0.0491614  
H238     H      0.590250000000     0.047360000000     0.508280000000     0.0494076  
H239     H      0.596980000000     0.958140000000     0.429820000000     0.0314113  
H240     H      0.530240000000     0.980320000000     0.645120000000     0.0235014  
H241     H      0.239410000000     0.059060000000     0.594400000000     0.0409824  
H242     H      0.183110000000     0.943990000000     0.553870000000     0.0226936  
H243     H      0.244430000000     0.006180000000     0.717570000000     0.0169884  
H244     H      0.230470000000     0.966800000000     0.659240000000     0.0413953  
H245     H      0.179730000000     0.969980000000     0.631370000000     0.0398611  
H246     H      0.231690000000     0.027830000000     0.522900000000     0.0421122  
H247     H      0.286550000000     0.072120000000     0.652750000000     0.0315053  
H248     H      0.138120000000     0.951760000000     0.569100000000     0.0303758  
H249     H      0.270430000000     0.972430000000     0.627760000000     0.0531475  
H250     H      0.187350000000     0.039060000000     0.537740000000     0.0483906  
H251     H      0.281090000000     0.979940000000     0.712650000000     0.0289776  
H252     H      0.213180000000     0.977970000000     0.490700000000     0.0237721  
H253     H      0.278210000000     0.035490000000     0.585330000000     0.0490673  
H254     H      0.154840000000     0.001190000000     0.607330000000     0.0467768  
H255     H      0.188370000000     0.008850000000     0.462740000000     0.0259542  
H256     H      0.246810000000     0.058570000000     0.680690000000     0.0226419  
H257     H      0.617620000000     0.961230000000     0.146240000000     0.0393452  
H258     H      0.610820000000     0.040870000000     0.993190000000     0.0231091  
H259     H      0.603280000000     0.035330000000     0.221660000000     0.0239079  
H260     H      0.624840000000     0.055250000000     0.149560000000     0.0403909  
H261     H      0.630500000000     0.060460000000     0.069210000000     0.0402582  
H262     H      0.622340000000     0.957940000000     0.065310000000     0.0395521  
H263     H      0.559980000000     0.961140000000     0.196610000000     0.0307449  
H264     H      0.652980000000     0.059200000000     0.986620000000     0.0315297  
H265     H      0.582620000000     0.053130000000     0.120370000000     0.0497348  
H266     H      0.666140000000     0.972920000000     0.062530000000     0.0494583  
H267     H      0.568590000000     0.060460000000     0.201560000000     0.0311043  
H268     H      0.605430000000     0.983180000000     0.991660000000     0.0240274  
H269     H      0.576340000000     0.969210000000     0.116800000000     0.0494614  
H270     H      0.671560000000     0.040280000000     0.065700000000     0.0488612  
H271     H      0.643450000000     0.959120000000     0.982520000000     0.0310792  
H272     H      0.598140000000     0.980290000000     0.219710000000     0.0233037  
H273     H      0.436050000000     0.972220000000     0.883800000000     0.0404166  
H274     H      0.521150000000     0.053690000000     0.987120000000     0.0217217  
H275     H      0.385490000000     0.054080000000     0.847630000000     0.0228555  
H276     H      0.437840000000     0.073610000000     0.880570000000     0.0405787  
H277     H      0.480270000000     0.071960000000     0.932820000000     0.0404388  
H278     H      0.481210000000     0.974440000000     0.931980000000     0.0406065  
H279     H      0.405510000000     0.971920000000     0.807080000000     0.0319263  
H280     H      0.489080000000     0.073170000000     0.023330000000     0.0311021  
H281     H      0.465440000000     0.056970000000     0.835170000000     0.0483618  
H282     H      0.444720000000     0.983680000000     0.970820000000     0.0494712  
H283     H      0.409950000000     0.072400000000     0.800630000000     0.0320952  
H284     H      0.523230000000     0.996730000000     0.982430000000     0.0234275  
H285     H      0.463320000000     0.987000000000     0.836430000000     0.050217   
H286     H      0.442770000000     0.062270000000     0.969310000000     0.0476543  
H287     H      0.495440000000     0.973050000000     0.019310000000     0.030593   
H288     H      0.383940000000     0.994420000000     0.852470000000     0.024155   
H289     H      0.414830000000     0.064210000000     0.382300000000     0.0404376  
H290     H      0.328470000000     0.986040000000     0.490200000000     0.0226835  
H291     H      0.458310000000     0.979030000000     0.342100000000     0.0245096  
H292     H      0.405160000000     0.962970000000     0.376770000000     0.040339   
H293     H      0.365740000000     0.966570000000     0.432520000000     0.0404079  
H294     H      0.371610000000     0.063940000000     0.433010000000     0.0400871  
H295     H      0.444860000000     0.063350000000     0.305960000000     0.0321684  
H296     H      0.360960000000     0.965140000000     0.523720000000     0.0310451  
H297     H      0.378130000000     0.982160000000     0.333190000000     0.0490808  
H298     H      0.408630000000     0.052340000000     0.469440000000     0.0489059  
H299     H      0.431070000000     0.963670000000     0.295420000000     0.0317709  
H300     H      0.329810000000     0.043300000000     0.485310000000     0.0197354  
H301     H      0.386040000000     0.051100000000     0.335460000000     0.048488   
H302     H      0.405280000000     0.973870000000     0.466210000000     0.0479076  
H303     H      0.360110000000     0.065490000000     0.520640000000     0.0302832  
H304     H      0.464820000000     0.038650000000     0.350010000000     0.0231672  
H305     H      0.248420000000     0.070640000000     0.119790000000     0.0409103  
H306     H      0.324650000000     0.988710000000     0.120200000000     0.0302655  
H307     H      0.244710000000     0.075100000000     0.971470000000     0.0249935  
H308     H      0.277640000000     0.027390000000     0.983750000000     0.0411084  
H309     H      0.308980000000     0.996350000000     0.037170000000     0.0455755  
H310     H      0.301840000000     0.084790000000     0.115680000000     0.0412344  
H311     H      0.190080000000     0.084070000000     0.084810000000     0.0307111  
H312     H      0.362800000000     0.983160000000     0.083150000000     0.0354278  
H313     H      0.241930000000     0.009030000000     0.015630000000     0.0471103  
H314     H      0.338430000000     0.078910000000     0.077730000000     0.0504501  
H315     H      0.219460000000     0.042250000000     0.950590000000     0.0314821  
H316     H      0.320690000000     0.042430000000     0.168730000000     0.0220146  
H317     H      0.224260000000     0.037170000000     0.102210000000     0.0495641  
H318     H      0.343570000000     0.024510000000     0.027860000000     0.0485239  
H319     H      0.355740000000     0.069880000000     0.160740000000     0.0308711  
H320     H      0.226130000000     0.100920000000     0.052670000000     0.0224129  
N1       N      0.083160000000     0.319300000000     0.693920000000    -0.188299   
N2       N      0.086600000000     0.360630000000     0.922620000000    -0.18856    
N3       N      0.115940000000     0.396780000000     0.192950000000    -0.188168   
N4       N      0.112710000000     0.359980000000     0.425080000000    -0.188356   
N5       N      0.092420000000     0.247810000000     0.527540000000    -0.189075   
N6       N      0.094340000000     0.089350000000     0.471310000000    -0.189087   
N7       N      0.084920000000     0.139610000000     0.994790000000    -0.189012   
N8       N      0.109660000000     0.292570000000     0.080130000000    -0.189368   
N9       N      0.802320000000     0.015710000000     0.389210000000    -0.189711   
N10      N      0.979380000000     0.024180000000     0.403290000000    -0.187812   
N11      N      0.701110000000     0.000410000000     0.796180000000    -0.189998   
N12      N      0.718940000000     0.006960000000     0.543230000000    -0.189906   
N13      N      0.782230000000     0.006150000000     0.052140000000    -0.191043   
N14      N      0.686870000000     0.016650000000     0.267900000000    -0.190124   
N15      N      0.004730000000     0.037130000000     0.953080000000    -0.18839    
N16      N      0.839350000000     0.996500000000     0.871080000000    -0.187659   
N17      N      0.102070000000     0.424400000000     0.594790000000    -0.189217   
N18      N      0.100470000000     0.583240000000     0.564760000000    -0.18888    
N19      N      0.047860000000     0.912860000000     0.446120000000    -0.188481   
N20      N      0.085950000000     0.764170000000     0.535660000000    -0.189194   
N21      N      0.093210000000     0.471370000000     0.029260000000    -0.188686   
N22      N      0.090500000000     0.630930000000     0.100060000000    -0.18885    
N23      N      0.103630000000     0.682310000000     0.688870000000    -0.188675   
N24      N      0.104480000000     0.695710000000     0.927530000000    -0.188503   
N25      N      0.082530000000     0.744220000000     0.194630000000    -0.189967   
N26      N      0.083720000000     0.662570000000     0.412990000000    -0.18997    
N27      N      0.096680000000     0.806910000000     0.027450000000    -0.188966   
N28      N      0.121440000000     0.961030000000     0.975170000000    -0.190405   
N29      N      0.599590000000     0.008390000000     0.428530000000    -0.190129   
N30      N      0.488790000000     0.011770000000     0.631330000000    -0.190501   
N31      N      0.160420000000     0.980780000000     0.514070000000    -0.189552   
N32      N      0.288080000000     0.025290000000     0.681150000000    -0.191505   
N33      N      0.652520000000     0.008870000000     0.983020000000    -0.190861   
N34      N      0.559530000000     0.011260000000     0.193280000000    -0.190677   
N35      N      0.488700000000     0.022880000000     0.025850000000    -0.190552   
N36      N      0.407470000000     0.022050000000     0.798800000000    -0.190007   
N37      N      0.363970000000     0.015360000000     0.526550000000    -0.191205   
N38      N      0.438480000000     0.013620000000     0.295750000000    -0.190352   
N39      N      0.361660000000     0.025470000000     0.124920000000    -0.187518   
N40      N      0.201820000000     0.063540000000     0.016190000000    -0.188869   
O1       O      0.413780000000     0.047710000000     0.147730000000    -0.557374   
O2       O      0.510650000000     0.040960000000     0.178250000000    -0.558119   
O3       O      0.474040000000     0.046710000000     0.096690000000    -0.557036   
O4       O      0.450970000000     0.041970000000     0.228410000000    -0.560177   
O5       O      0.445270000000     0.990270000000     0.222310000000    -0.554558   
O6       O      0.472670000000     0.994690000000     0.092000000000    -0.556359   
O7       O      0.506450000000     0.988970000000     0.175380000000    -0.557081   
O8       O      0.411000000000     0.996010000000     0.137930000000    -0.555215   
O9       O      0.342070000000     0.047750000000     0.671160000000    -0.561321   
O10      O      0.439650000000     0.041090000000     0.646600000000    -0.559874   
O11      O      0.381020000000     0.042610000000     0.593090000000    -0.560479   
O12      O      0.400200000000     0.046210000000     0.726080000000    -0.557911   
O13      O      0.397650000000     0.994220000000     0.729970000000    -0.555205   
O14      O      0.376020000000     0.990760000000     0.597610000000    -0.554222   
O15      O      0.435660000000     0.989120000000     0.649130000000    -0.553075   
O16      O      0.338400000000     0.995890000000     0.678220000000    -0.553565   
O17      O      0.123830000000     0.761670000000     0.050290000000    -0.562858   
O18      O      0.121090000000     0.675770000000     0.083030000000    -0.561437   
O19      O      0.127950000000     0.707870000000     0.000890000000    -0.560718   
O20      O      0.116970000000     0.729950000000     0.131270000000    -0.563455   
O21      O      0.058800000000     0.731360000000     0.121780000000    -0.557503   
O22      O      0.069720000000     0.705920000000     0.992660000000    -0.559414   
O23      O      0.062700000000     0.676080000000     0.076590000000    -0.5562     
O24      O      0.065980000000     0.761170000000     0.037290000000    -0.555246   
O25      O      0.118830000000     0.719220000000     0.538270000000    -0.559315   
O26      O      0.125970000000     0.631320000000     0.553960000000    -0.560877   
O27      O      0.117570000000     0.669750000000     0.479640000000    -0.563313   
O28      O      0.127400000000     0.680400000000     0.613450000000    -0.5603     
O29      O      0.069300000000     0.676790000000     0.621980000000    -0.560568   
O30      O      0.059320000000     0.667680000000     0.487670000000    -0.558904   
O31      O      0.067770000000     0.628250000000     0.561490000000    -0.560768   
O32      O      0.060840000000     0.716260000000     0.548770000000    -0.560932   
O33      O      0.789110000000     0.973950000000     0.899790000000    -0.563712   
O34      O      0.697240000000     0.979900000000     0.950850000000    -0.558885   
O35      O      0.723880000000     0.975530000000     0.862120000000    -0.554071   
O36      O      0.761960000000     0.978500000000     0.987600000000    -0.55676    
O37      O      0.766500000000     0.030350000000     0.982150000000    -0.557323   
O38      O      0.724910000000     0.027590000000     0.858940000000    -0.558129   
O39      O      0.700810000000     0.031920000000     0.948850000000    -0.557435   
O40      O      0.791220000000     0.025810000000     0.892010000000    -0.560274   
O41      O      0.750860000000     0.987700000000     0.391770000000    -0.551178   
O42      O      0.652460000000     0.983970000000     0.415190000000    -0.55176    
O43      O      0.693110000000     0.988200000000     0.336810000000    -0.553797   
O44      O      0.710280000000     0.983340000000     0.470360000000    -0.552424   
O45      O      0.706450000000     0.035220000000     0.475590000000    -0.558268   
O46      O      0.693650000000     0.040250000000     0.341120000000    -0.55631    
O47      O      0.650460000000     0.036050000000     0.417150000000    -0.559379   
O48      O      0.749150000000     0.039490000000     0.400590000000    -0.560974   
O49      O      0.157860000000     0.056340000000     0.961350000000    -0.557886   
O50      O      0.060930000000     0.049770000000     0.931420000000    -0.558978   
O51      O      0.104340000000     0.097050000000     0.952510000000    -0.557112   
O52      O      0.114110000000     0.009030000000     0.940340000000    -0.562639   
O53      O      0.109530000000     0.004630000000     0.019600000000    -0.564349   
O54      O      0.084840000000     0.090380000000     0.027000000000    -0.558103   
O55      O      0.049870000000     0.037400000000     0.007430000000    -0.556168   
O56      O      0.144340000000     0.057600000000     0.038930000000    -0.556476   
O57      O      0.126480000000     0.994030000000     0.449550000000    -0.551973   
O58      O      0.036630000000     0.008700000000     0.394860000000    -0.557176   
O59      O      0.089290000000     0.045020000000     0.426170000000    -0.557117   
O60      O      0.073660000000     0.957620000000     0.417870000000    -0.554521   
O61      O      0.043670000000     0.959490000000     0.486300000000    -0.552448   
O62      O      0.072960000000     0.043710000000     0.502770000000    -0.555201   
O63      O      0.014930000000     0.015830000000     0.468150000000    -0.556195   
O64      O      0.101090000000     0.987530000000     0.520800000000    -0.554534   
O65      O      0.076590000000     0.337460000000     0.076900000000    -0.556459   
O66      O      0.068260000000     0.424190000000     0.049130000000    -0.5568     
O67      O      0.065120000000     0.371220000000     0.997570000000    -0.559323   
O68      O      0.079490000000     0.390220000000     0.128480000000    -0.560146   
O69      O      0.137430000000     0.391060000000     0.116620000000    -0.557933   
O70      O      0.122740000000     0.375140000000     0.984540000000    -0.559364   
O71      O      0.126260000000     0.426970000000     0.038910000000    -0.560438   
O72      O      0.134010000000     0.339920000000     0.061480000000    -0.562309   
O73      O      0.066560000000     0.295800000000     0.535350000000    -0.560413   
O74      O      0.071010000000     0.381330000000     0.570350000000    -0.561227   
O75      O      0.076150000000     0.349430000000     0.488220000000    -0.561122   
O76      O      0.061450000000     0.327990000000     0.618330000000    -0.55802    
O77      O      0.119430000000     0.324950000000     0.629120000000    -0.561105   
O78      O      0.133960000000     0.344230000000     0.498230000000    -0.557879   
O79      O      0.129050000000     0.377480000000     0.579340000000    -0.559377   
O80      O      0.124060000000     0.291060000000     0.549310000000    -0.558721   
V1       V      0.462430000000     0.046430000000     0.162890000000     1.38452    
V2       V      0.458580000000     0.990410000000     0.156720000000     1.39314    
V3       V      0.391020000000     0.046470000000     0.659220000000     1.39151    
V4       V      0.386880000000     0.990410000000     0.663980000000     1.3853     
V5       V      0.124770000000     0.718730000000     0.066650000000     1.4        
V6       V      0.061940000000     0.718620000000     0.056730000000     1.37976    
V7       V      0.124760000000     0.675360000000     0.546050000000     1.39345    
V8       V      0.061980000000     0.672140000000     0.555270000000     1.39098    
V9       V      0.742950000000     0.974890000000     0.925080000000     1.39804    
V10      V      0.746040000000     0.031000000000     0.920170000000     1.38       
V11      V      0.701710000000     0.983700000000     0.403320000000     1.381      
V12      V      0.699760000000     0.039820000000     0.408700000000     1.38885    
V13      V      0.109860000000     0.053290000000     0.943140000000     1.38583    
V14      V      0.096610000000     0.047250000000     0.026510000000     1.38284    
V15      V      0.082520000000     0.001290000000     0.419030000000     1.37618    
V16      V      0.057080000000     0.001670000000     0.497540000000     1.37439    
V17      V      0.070050000000     0.380740000000     0.063530000000     1.3847     
V18      V      0.132400000000     0.383500000000     0.049930000000     1.39256    
V19      V      0.066480000000     0.338720000000     0.552630000000     1.39273    
V20      V      0.128960000000     0.334200000000     0.564220000000     1.38885    


