data_structure

_audit_creation_method RASPA-1.0
_audit_creation_date 2023-5-25
_audit_author_name 'Poobodin Mano'

_cell_length_a    29.4522
_cell_length_b    29.1934
_cell_length_c    29.519
_cell_angle_alpha 90
_cell_angle_beta  89.9998
_cell_angle_gamma 90
_cell_volume      25380.7

_symmetry_cell_setting          triclinic
_symmetry_space_group_name_Hall 'P 1'
_symmetry_space_group_name_H-M  'P 1'
_symmetry_Int_Tables_number     1

_symmetry_equiv_pos_as_xyz 'x,y,z'

loop_
_atom_site_label
_atom_site_type_symbol
_atom_site_fract_x
_atom_site_fract_y
_atom_site_fract_z
_atom_site_charge
C1       C      0.009860000000     0.094870000000     0.524570000000     0.472663   
C2       C      0.025110000000     0.922330000000     0.525470000000     0.476157   
C3       C      0.932720000000     0.999360000000     0.532590000000     0.476802   
C4       C      0.103130000000     0.014770000000     0.517380000000     0.473243   
C5       C      0.010770000000     0.424750000000     0.485170000000     0.475821   
C6       C      0.997680000000     0.597770000000     0.484680000000     0.485211   
C7       C      0.996840000000     0.512130000000     0.399730000000     0.474954   
C8       C      0.011440000000     0.513320000000     0.570700000000     0.480225   
C9       C      0.516660000000     0.010760000000     0.601960000000     0.476624   
C10      C      0.518620000000     0.006240000000     0.430420000000     0.474417   
C11      C      0.603640000000     0.003660000000     0.517500000000     0.47683    
C12      C      0.431990000000     0.015400000000     0.515940000000     0.473038   
C13      C      0.480120000000     0.098550000000     0.018320000000     0.478955   
C14      C      0.505920000000     0.927150000000     0.015290000000     0.47664    
C15      C      0.493720000000     0.012700000000     0.102000000000     0.485246   
C16      C      0.491790000000     0.015680000000     0.930530000000     0.475695   
C17      C      0.000230000000     0.513550000000     0.898640000000     0.478876   
C18      C      0.999610000000     0.514340000000     0.070230000000     0.475295   
C19      C      0.914050000000     0.513140000000     0.984650000000     0.475947   
C20      C      0.085890000000     0.516570000000     0.984460000000     0.479701   
C21      C      0.497030000000     0.425140000000     0.988380000000     0.48153    
C22      C      0.501210000000     0.598600000000     0.988860000000     0.473559   
C23      C      0.584520000000     0.508110000000     0.995510000000     0.474251   
C24      C      0.413320000000     0.513620000000     0.981500000000     0.476099   
C25      C      0.656030000000     0.475080000000     0.966830000000     0.0188964  
C26      C      0.842780000000     0.554110000000     0.000320000000     0.0173897  
C27      C      0.842190000000     0.475280000000     0.962760000000    -0.00163925 
C28      C      0.801070000000     0.541190000000     0.028370000000    -0.102443   
C29      C      0.701800000000     0.496780000000     0.955420000000    -0.107074   
C30      C      0.797500000000     0.464550000000     0.987530000000    -0.0907157  
C31      C      0.726630000000     0.512060000000     0.997840000000     0.0269363  
C32      C      0.772510000000     0.507490000000     0.002080000000     0.0258935  
C33      C      0.654000000000     0.517370000000     0.041340000000     0.018812   
C34      C      0.698920000000     0.541290000000     0.030050000000    -0.106454   
C35      C      0.159280000000     0.482680000000     0.007770000000     0.016959   
C36      C      0.345470000000     0.527060000000     0.934720000000     0.0182789  
C37      C      0.339790000000     0.486850000000     0.011420000000    -0.000421134
C38      C      0.299820000000     0.550650000000     0.943270000000    -0.103514   
C39      C      0.201480000000     0.470030000000     0.980390000000    -0.106369   
C40      C      0.292460000000     0.507760000000     0.017940000000    -0.0923566  
C41      C      0.226090000000     0.512660000000     0.964450000000     0.0288126  
C42      C      0.270720000000     0.520870000000     0.973370000000     0.0283915  
C43      C      0.156100000000     0.559380000000     0.967710000000     0.0183763  
C44      C      0.196860000000     0.545980000000     0.938250000000    -0.106932   
C45      C      0.477300000000     0.671150000000     0.024810000000     0.0190284  
C46      C      0.556050000000     0.860770000000     0.001180000000     0.0169427  
C47      C      0.479540000000     0.851190000000     0.040500000000    -0.00133929 
C48      C      0.548370000000     0.815950000000     0.974940000000    -0.101795   
C49      C      0.507020000000     0.709590000000     0.043240000000    -0.107487   
C50      C      0.472850000000     0.805440000000     0.015970000000    -0.0904934  
C51      C      0.525090000000     0.738340000000     0.004580000000     0.0280923  
C52      C      0.517470000000     0.784310000000     0.001360000000     0.0268336  
C53      C      0.521610000000     0.671860000000     0.951400000000     0.0169038  
C54      C      0.551260000000     0.711500000000     0.969200000000    -0.10676    
C55      C      0.515580000000     0.352980000000     0.027840000000     0.0238194  
C56      C      0.433060000000     0.165930000000     0.000090000000     0.0174691  
C57      C      0.504500000000     0.173280000000     0.048230000000    -0.000701481
C58      C      0.446550000000     0.208690000000     0.972940000000    -0.101266   
C59      C      0.482670000000     0.315520000000     0.042080000000    -0.111121   
C60      C      0.516800000000     0.217550000000     0.023340000000    -0.0896319  
C61      C      0.470610000000     0.286180000000     0.001580000000     0.0349278  
C62      C      0.475710000000     0.239880000000     0.001770000000     0.0253713  
C63      C      0.483730000000     0.351570000000     0.948360000000     0.0246213  
C64      C      0.451520000000     0.312020000000     0.961380000000    -0.113118   
C65      C      0.522130000000     0.050690000000     0.860690000000     0.0187848  
C66      C      0.503730000000     0.968740000000     0.672960000000     0.0183004  
C67      C      0.533950000000     0.050640000000     0.673940000000    -0.00118696 
C68      C      0.473210000000     0.979190000000     0.713470000000    -0.103178   
C69      C      0.537460000000     0.030480000000     0.815420000000    -0.106858   
C70      C      0.507290000000     0.059220000000     0.717970000000    -0.0914689  
C71      C      0.497740000000     0.011420000000     0.788640000000     0.0268404  
C72      C      0.495490000000     0.015220000000     0.742650000000     0.0270788  
C73      C      0.451190000000     0.002290000000     0.858710000000     0.0186956  
C74      C      0.466900000000     0.979390000000     0.814800000000    -0.106003   
C75      C      0.453790000000     0.999800000000     0.174220000000     0.0247196  
C76      C      0.541260000000     0.040400000000     0.357070000000     0.0174521  
C77      C      0.504120000000     0.961670000000     0.361040000000     0.00231258 
C78      C      0.514710000000     0.050890000000     0.313740000000    -0.101849   
C79      C      0.468470000000     0.974550000000     0.217260000000    -0.110174   
C80      C      0.476010000000     0.972830000000     0.318600000000    -0.094001   
C81      C      0.502080000000     0.003550000000     0.243430000000     0.0326651  
C82      C      0.500380000000     0.007510000000     0.289400000000     0.0285602  
C83      C      0.528520000000     0.042310000000     0.172100000000     0.0172789  
C84      C      0.542900000000     0.019480000000     0.216410000000    -0.104916   
C85      C      0.977310000000     0.548450000000     0.825660000000     0.0165833  
C86      C      0.057910000000     0.506440000000     0.639610000000     0.0203361  
C87      C      0.980740000000     0.545370000000     0.641350000000    -5.39627e-05
C88      C      0.048710000000     0.484490000000     0.685820000000    -0.104357   
C89      C      0.005110000000     0.561870000000     0.783940000000    -0.105471   
C90      C      0.972900000000     0.527050000000     0.689490000000    -0.0918653  
C91      C      0.021890000000     0.519810000000     0.758820000000     0.0277357  
C92      C      0.016760000000     0.514180000000     0.713240000000     0.0295872  
C93      C      0.017380000000     0.471820000000     0.827970000000     0.0179734  
C94      C      0.047470000000     0.485870000000     0.787950000000    -0.106224   
C95      C      0.024870000000     0.544520000000     0.327990000000     0.0191077  
C96      C      0.984630000000     0.471920000000     0.140610000000     0.0173719  
C97      C      0.021950000000     0.550950000000     0.142440000000    -0.00190408 
C98      C      0.957640000000     0.483530000000     0.183350000000    -0.102356   
C99      C      0.034290000000     0.524620000000     0.281040000000    -0.107557   
C100     C      0.998280000000     0.560170000000     0.187990000000    -0.0904177  
C101     C      0.990840000000     0.510220000000     0.257450000000     0.0273723  
C102     C      0.984750000000     0.516400000000     0.212060000000     0.0253803  
C103     C      0.950050000000     0.502310000000     0.331200000000     0.019249   
C104     C      0.959850000000     0.479860000000     0.285310000000    -0.106897   
C105     C      0.170930000000     0.032410000000     0.471540000000     0.0193157  
C106     C      0.358160000000     0.983580000000     0.539990000000     0.0173606  
C107     C      0.363580000000     0.062710000000     0.503710000000     0.00119149 
C108     C      0.313840000000     0.974820000000     0.514670000000    -0.101313   
C109     C      0.215810000000     0.056800000000     0.482490000000    -0.108084   
C110     C      0.318830000000     0.053680000000     0.478070000000    -0.09292    
C111     C      0.245060000000     0.026150000000     0.511760000000     0.0312719  
C112     C      0.290070000000     0.019350000000     0.503500000000     0.0264513  
C113     C      0.177030000000     0.986370000000     0.544040000000     0.0176919  
C114     C      0.222380000000     0.009230000000     0.554630000000    -0.106092   
C115     C      0.676210000000     0.042080000000     0.533220000000     0.022231   
C116     C      0.862670000000     0.962950000000     0.503860000000     0.018054   
C117     C      0.863700000000     0.003960000000     0.579650000000     0.00200207 
C118     C      0.815340000000     0.981910000000     0.493710000000    -0.101186   
C119     C      0.715850000000     0.028030000000     0.563540000000    -0.109121   
C120     C      0.816970000000     0.024970000000     0.569400000000    -0.0935383  
C121     C      0.744060000000     0.992700000000     0.538960000000     0.0293816  
C122     C      0.790200000000     0.995730000000     0.536410000000     0.0300577  
C123     C      0.674730000000     0.963240000000     0.497430000000     0.0160636  
C124     C      0.717930000000     0.950590000000     0.523720000000    -0.104497   
C125     C      0.953690000000     0.667990000000     0.501170000000     0.0269336  
C126     C      0.049370000000     0.850970000000     0.487720000000     0.0178914  
C127     C      0.009930000000     0.849170000000     0.564480000000     0.000922881
C128     C      0.018120000000     0.813330000000     0.470410000000    -0.100684   
C129     C      0.967670000000     0.708260000000     0.531680000000    -0.113734   
C130     C      0.979050000000     0.809900000000     0.547790000000    -0.0922847  
C131     C      0.002760000000     0.737560000000     0.507850000000     0.0356661  
C132     C      0.001500000000     0.784070000000     0.509360000000     0.0252956  
C133     C      0.028400000000     0.672210000000     0.459570000000     0.0223677  
C134     C      0.043530000000     0.712110000000     0.489170000000    -0.107909   
C135     C      0.057620000000     0.355290000000     0.495410000000     0.018971   
C136     C      0.975620000000     0.164180000000     0.490790000000     0.0171908  
C137     C      0.024480000000     0.169240000000     0.561710000000     0.00128185 
C138     C      0.997710000000     0.207570000000     0.472160000000    -0.101075   
C139     C      0.049610000000     0.314820000000     0.527620000000    -0.107022   
C140     C      0.047280000000     0.212900000000     0.543060000000    -0.0930883  
C141     C      0.013060000000     0.283840000000     0.508520000000     0.0283169  
C142     C      0.016430000000     0.237290000000     0.509870000000     0.0279506  
C143     C      0.977210000000     0.349470000000     0.466430000000     0.0185041  
C144     C      0.968880000000     0.307600000000     0.496390000000    -0.10526    
H1       H      0.721340000000     0.472810000000     0.933890000000     0.0640125  
H2       H      0.831840000000     0.574450000000     0.970430000000     0.042036   
H3       H      0.661270000000     0.486490000000     0.062210000000     0.0296761  
H4       H      0.716760000000     0.546900000000     0.062740000000     0.0465203  
H5       H      0.782690000000     0.573550000000     0.035760000000     0.0473134  
H6       H      0.776700000000     0.440290000000     0.967500000000     0.0548262  
H7       H      0.636870000000     0.469290000000     0.934890000000     0.0389925  
H8       H      0.864500000000     0.576740000000     0.021530000000     0.0360123  
H9       H      0.692110000000     0.575130000000     0.014180000000     0.0557485  
H10      H      0.806160000000     0.445480000000     0.018980000000     0.0503301  
H11      H      0.632970000000     0.541120000000     0.062050000000     0.0359044  
H12      H      0.695590000000     0.527650000000     0.934260000000     0.0679036  
H13      H      0.811780000000     0.525540000000     0.061000000000     0.0509656  
H14      H      0.862560000000     0.443210000000     0.962540000000     0.0530418  
H15      H      0.662470000000     0.440880000000     0.982160000000     0.0281624  
H16      H      0.885850000000     0.536050000000     0.887780000000     0.150556   
H17      H      0.223100000000     0.446150000000     0.000030000000     0.0660895  
H18      H      0.339990000000     0.496720000000     0.912630000000     0.0405083  
H19      H      0.168410000000     0.579690000000     0.997160000000     0.0376424  
H20      H      0.214870000000     0.578070000000     0.929200000000     0.0477967  
H21      H      0.284060000000     0.556420000000     0.909570000000     0.0481464  
H22      H      0.271210000000     0.485190000000     0.039430000000     0.058126   
H23      H      0.139230000000     0.451170000000     0.014620000000     0.0403774  
H24      H      0.367520000000     0.551330000000     0.915740000000     0.0348987  
H25      H      0.184860000000     0.529500000000     0.906480000000     0.0555523  
H26      H      0.296430000000     0.539820000000     0.037880000000     0.0548558  
H27      H      0.133490000000     0.581820000000     0.947240000000     0.0380474  
H28      H      0.190450000000     0.450650000000     0.949900000000     0.0640521  
H29      H      0.305350000000     0.584400000000     0.959810000000     0.0530066  
H30      H      0.356720000000     0.487290000000     0.045090000000     0.0543324  
H31      H      0.170720000000     0.496400000000     0.040990000000     0.0420316  
H32      H      0.392990000000     0.415800000000     0.951770000000     0.149916   
H33      H      0.488500000000     0.729390000000     0.069390000000     0.0648846  
H34      H      0.577980000000     0.853680000000     0.030990000000     0.0422043  
H35      H      0.493690000000     0.686510000000     0.930560000000     0.0294599  
H36      H      0.561200000000     0.732730000000     0.939630000000     0.0475015  
H37      H      0.582300000000     0.800350000000     0.969250000000     0.0491309  
H38      H      0.450950000000     0.782590000000     0.036430000000     0.0541256  
H39      H      0.466280000000     0.649010000000     0.053400000000     0.0395322  
H40      H      0.574920000000     0.884850000000     0.978850000000     0.0362061  
H41      H      0.582680000000     0.697470000000     0.984760000000     0.0558536  
H42      H      0.453030000000     0.812240000000     0.984610000000     0.0508926  
H43      H      0.542760000000     0.649950000000     0.928950000000     0.0364855  
H44      H      0.536450000000     0.694000000000     0.061090000000     0.064759   
H45      H      0.532780000000     0.823520000000     0.941470000000     0.0517838  
H46      H      0.445590000000     0.867730000000     0.042330000000     0.0525631  
H47      H      0.446200000000     0.686650000000     0.009900000000     0.0279632  
H48      H      0.539020000000     0.901450000000     0.111610000000     0.153716   
H49      H      0.496610000000     0.296120000000     0.071190000000     0.0663211  
H50      H      0.408640000000     0.175920000000     0.027010000000     0.0428018  
H51      H      0.514730000000     0.336710000000     0.932630000000     0.0284918  
H52      H      0.447610000000     0.289870000000     0.931050000000     0.0507933  
H53      H      0.414660000000     0.225900000000     0.962180000000     0.0513628  
H54      H      0.536610000000     0.240330000000     0.045930000000     0.0535927  
H55      H      0.522660000000     0.375410000000     0.057430000000     0.0393491  
H56      H      0.415270000000     0.141780000000     0.976950000000     0.0348     
H57      H      0.417540000000     0.325630000000     0.970380000000     0.0754036  
H58      H      0.540490000000     0.208560000000     0.995390000000     0.0521524  
H59      H      0.466700000000     0.373230000000     0.922450000000     0.0366701  
H60      H      0.451010000000     0.331900000000     0.054670000000     0.0769854  
H61      H      0.465800000000     0.198440000000     0.942180000000     0.0521328  
H62      H      0.536860000000     0.155060000000     0.055430000000     0.0514036  
H63      H      0.548230000000     0.336670000000     0.017900000000     0.0265185  
H64      H      0.431400000000     0.129880000000     0.109220000000     0.153467   
H65      H      0.557560000000     0.056530000000     0.797000000000     0.0634961  
H66      H      0.535210000000     0.951650000000     0.685060000000     0.0418677  
H67      H      0.428240000000     0.031310000000     0.850160000000     0.0304399  
H68      H      0.435680000000     0.970740000000     0.795480000000     0.0470648  
H69      H      0.468160000000     0.946300000000     0.731660000000     0.0475896  
H70      H      0.524960000000     0.084960000000     0.739130000000     0.0561978  
H71      H      0.552630000000     0.058710000000     0.881410000000     0.0391222  
H72      H      0.485490000000     0.943840000000     0.651000000000     0.0357652  
H73      H      0.485420000000     0.947170000000     0.822640000000     0.0553009  
H74      H      0.474580000000     0.075720000000     0.708580000000     0.0551105  
H75      H      0.431260000000     0.976860000000     0.878530000000     0.0358526  
H76      H      0.561140000000     0.001690000000     0.822440000000     0.0678834  
H77      H      0.439620000000     0.991770000000     0.701600000000     0.0532854  
H78      H      0.531830000000     0.082530000000     0.653460000000     0.0561117  
H79      H      0.504540000000     0.083680000000     0.853780000000     0.0282043  
H80      H      0.614630000000     0.994310000000     0.634090000000     0.152425   
H81      H      0.437110000000     0.967710000000     0.237040000000     0.0526972  
H82      H      0.575920000000     0.028950000000     0.347430000000     0.0362919  
H83      H      0.514030000000     0.076490000000     0.180330000000     0.0452214  
H84      H      0.565720000000     0.042880000000     0.235190000000     0.054649   
H85      H      0.534680000000     0.074780000000     0.292500000000     0.0510311  
H86      H      0.469450000000     0.940140000000     0.300470000000     0.059006   
H87      H      0.431780000000     0.976480000000     0.154050000000     0.0436759  
H88      H      0.545360000000     0.072680000000     0.376610000000     0.0379679  
H89      H      0.563620000000     0.988780000000     0.208080000000     0.0703956  
H90      H      0.442650000000     0.987280000000     0.328930000000     0.0512129  
H91      H      0.559170000000     0.048250000000     0.150910000000     0.0420857  
H92      H      0.484430000000     0.941260000000     0.208290000000     0.077246   
H93      H      0.483350000000     0.069760000000     0.323260000000     0.0562987  
H94      H      0.481580000000     0.941120000000     0.383450000000     0.0514918  
H95      H      0.433170000000     0.030200000000     0.183900000000     0.0350521  
H96      H      0.602940000000     0.949850000000     0.394850000000     0.14844    
H97      H      0.985370000000     0.585950000000     0.762670000000     0.0648501  
H98      H      0.078430000000     0.538020000000     0.644520000000     0.0386719  
H99      H      0.987930000000     0.451920000000     0.814920000000     0.039109   
H100     H      0.056550000000     0.454040000000     0.769500000000     0.0488262  
H101     H      0.082160000000     0.480590000000     0.702810000000     0.0492693  
H102     H      0.951340000000     0.551330000000     0.708680000000     0.0578786  
H103     H      0.970180000000     0.579630000000     0.846070000000     0.0410501  
H104     H      0.078550000000     0.482180000000     0.619050000000     0.0335066  
H105     H      0.079250000000     0.501930000000     0.800600000000     0.0554989  
H106     H      0.952360000000     0.495220000000     0.686740000000     0.0564344  
H107     H      0.037500000000     0.448830000000     0.850320000000     0.0389316  
H108     H      0.035360000000     0.581400000000     0.795520000000     0.0646042  
H109     H      0.033460000000     0.449980000000     0.681170000000     0.0554246  
H110     H      0.947450000000     0.544430000000     0.623580000000     0.052534   
H111     H      0.944130000000     0.534830000000     0.813790000000     0.0419783  
H112     H      0.053090000000     0.610490000000     0.595130000000     0.155692   
H113     H      0.054970000000     0.549400000000     0.261560000000     0.0640013  
H114     H      0.014850000000     0.451220000000     0.150110000000     0.0417715  
H115     H      0.928670000000     0.533240000000     0.325680000000     0.0296502  
H116     H      0.926480000000     0.474530000000     0.268580000000     0.0457935  
H117     H      0.950730000000     0.450630000000     0.200900000000     0.0465484  
H118     H      0.018720000000     0.583950000000     0.208950000000     0.0541649  
H119     H      0.057690000000     0.548950000000     0.346090000000     0.0380198  
H120     H      0.962790000000     0.449980000000     0.118820000000     0.0354242  
H121     H      0.976240000000     0.445960000000     0.290480000000     0.0551256  
H122     H      0.966400000000     0.579220000000     0.180770000000     0.0499936  
H123     H      0.930220000000     0.477770000000     0.352180000000     0.033856   
H124     H      0.055770000000     0.493580000000     0.285140000000     0.0680633  
H125     H      0.924650000000     0.499440000000     0.174000000000     0.0507351  
H126     H      0.021290000000     0.583550000000     0.122970000000     0.0524194  
H127     H      0.009950000000     0.579240000000     0.323570000000     0.0271427  
H128     H      0.097140000000     0.492740000000     0.095170000000     0.150256   
H129     H      0.232300000000     0.065010000000     0.449640000000     0.0485989  
H130     H      0.349870000000     0.994970000000     0.574950000000     0.035544   
H131     H      0.183980000000     0.952850000000     0.527510000000     0.0275118  
H132     H      0.243630000000     0.985690000000     0.575030000000     0.0547723  
H133     H      0.292640000000     0.950320000000     0.534010000000     0.0476594  
H134     H      0.301320000000     0.087010000000     0.473170000000     0.0563558  
H135     H      0.148320000000     0.056920000000     0.453510000000     0.0344756  
H136     H      0.376740000000     0.950600000000     0.543200000000     0.0368328  
H137     H      0.215830000000     0.039430000000     0.576620000000     0.0692621  
H138     H      0.326620000000     0.039600000000     0.443950000000     0.0500086  
H139     H      0.159180000000     0.979000000000     0.576420000000     0.0426643  
H140     H      0.208910000000     0.089370000000     0.500740000000     0.0616563  
H141     H      0.322010000000     0.957390000000     0.482190000000     0.0539875  
H142     H      0.385850000000     0.082210000000     0.480150000000     0.0507992  
H143     H      0.177980000000     0.003340000000     0.448190000000     0.0294266  
H144     H      0.402720000000     0.072750000000     0.601040000000     0.149634   
H145     H      0.735120000000     0.059740000000     0.571400000000     0.0550447  
H146     H      0.858830000000     0.927750000000     0.517690000000     0.0440439  
H147     H      0.684880000000     0.973840000000     0.462690000000     0.0295048  
H148     H      0.738360000000     0.926280000000     0.503390000000     0.0543089  
H149     H      0.796860000000     0.956590000000     0.472770000000     0.0486942  
H150     H      0.798800000000     0.029120000000     0.602170000000     0.0612837  
H151     H      0.655020000000     0.067020000000     0.552320000000     0.0495423  
H152     H      0.881580000000     0.959630000000     0.471440000000     0.0368697  
H153     H      0.707680000000     0.931500000000     0.554660000000     0.0665625  
H154     H      0.821680000000     0.059580000000     0.554400000000     0.0521497  
H155     H      0.653060000000     0.932260000000     0.493900000000     0.043723   
H156     H      0.703040000000     0.013320000000     0.595820000000     0.0753756  
H157     H      0.819190000000     0.013040000000     0.472370000000     0.0529486  
H158     H      0.883260000000     0.030420000000     0.598530000000     0.0521474  
H159     H      0.689700000000     0.059870000000     0.502700000000     0.0303544  
H160     H      0.929450000000     0.941220000000     0.632420000000     0.156955   
H161     H      0.936360000000     0.727980000000     0.539490000000     0.0568641  
H162     H      0.081470000000     0.834960000000     0.499570000000     0.0352216  
H163     H      0.012970000000     0.686400000000     0.428170000000     0.0251344  
H164     H      0.067550000000     0.733910000000     0.469990000000     0.0531399  
H165     H      0.035230000000     0.793830000000     0.443120000000     0.0461863  
H166     H      0.971020000000     0.787440000000     0.577110000000     0.064416   
H167     H      0.931510000000     0.644610000000     0.521050000000     0.0441028  
H168     H      0.058460000000     0.874010000000     0.459140000000     0.0350144  
H169     H      0.063050000000     0.698200000000     0.518320000000     0.0746193  
H170     H      0.946510000000     0.824490000000     0.535280000000     0.0576653  
H171     H      0.058650000000     0.651960000000     0.449260000000     0.0358094  
H172     H      0.982050000000     0.695330000000     0.564000000000     0.0862091  
H173     H      0.988050000000     0.829640000000     0.454340000000     0.0545048  
H174     H      0.988640000000     0.871150000000     0.586770000000     0.0618808  
H175     H      0.933510000000     0.681550000000     0.472270000000     0.0284989  
H176     H      0.110590000000     0.872940000000     0.579340000000     0.148529   
H177     H      0.082560000000     0.296680000000     0.531380000000     0.0491061  
H178     H      0.943010000000     0.173810000000     0.507140000000     0.0354957  
H179     H      0.987040000000     0.337180000000     0.432140000000     0.0263446  
H180     H      0.943670000000     0.284990000000     0.479830000000     0.0519225  
H181     H      0.973240000000     0.225380000000     0.449780000000     0.046435   
H182     H      0.056520000000     0.235060000000     0.572260000000     0.0575042  
H183     H      0.082230000000     0.379140000000     0.511570000000     0.0358547  
H184     H      0.966980000000     0.141260000000     0.461990000000     0.0354545  
H185     H      0.952840000000     0.319330000000     0.528450000000     0.0669906  
H186     H      0.079200000000     0.203400000000     0.525300000000     0.051272   
H187     H      0.944950000000     0.368860000000     0.462670000000     0.0359377  
H188     H      0.038890000000     0.327630000000     0.561430000000     0.0604347  
H189     H      0.026590000000     0.197360000000     0.450120000000     0.0531749  
H190     H      0.051350000000     0.149730000000     0.579900000000     0.0524483  
H191     H      0.073170000000     0.342230000000     0.463580000000     0.0304937  
H192     H      0.930080000000     0.131880000000     0.589210000000     0.149724   
N1       N      0.867600000000     0.513030000000     0.984670000000    -0.182637   
N2       N      0.630440000000     0.503130000000     0.999650000000    -0.187698   
N3       N      0.367070000000     0.512050000000     0.977370000000    -0.182369   
N4       N      0.132250000000     0.518270000000     0.984580000000    -0.184343   
N5       N      0.512780000000     0.880810000000     0.016850000000    -0.182595   
N6       N      0.501540000000     0.645460000000     0.989130000000    -0.187231   
N7       N      0.473330000000     0.144660000000     0.021010000000    -0.183871   
N8       N      0.497280000000     0.378330000000     0.988630000000    -0.185412   
N9       N      0.515980000000     0.011010000000     0.648290000000    -0.182405   
N10      N      0.490270000000     0.019960000000     0.884460000000    -0.187897   
N11      N      0.519430000000     0.003950000000     0.384120000000    -0.183213   
N12      N      0.493620000000     0.015240000000     0.148180000000    -0.183165   
N13      N      0.015130000000     0.518280000000     0.616560000000    -0.183007   
N14      N      0.000370000000     0.512540000000     0.852320000000    -0.18397    
N15      N      0.999740000000     0.513670000000     0.116590000000    -0.182361   
N16      N      0.992480000000     0.516120000000     0.353820000000    -0.18789    
N17      N      0.385710000000     0.019400000000     0.517660000000    -0.182785   
N18      N      0.149290000000     0.014470000000     0.512950000000    -0.1869     
N19      N      0.887220000000     0.991260000000     0.537350000000    -0.180268   
N20      N      0.649990000000     0.001580000000     0.518720000000    -0.185685   
N21      N      0.028050000000     0.875700000000     0.525800000000    -0.18308    
N22      N      0.994120000000     0.644340000000     0.483290000000    -0.186106   
N23      N      0.004870000000     0.141460000000     0.524690000000    -0.18262    
N24      N      0.014340000000     0.378090000000     0.484450000000    -0.187486   
O1       O      0.003840000000     0.072240000000     0.487730000000    -0.553989   
O2       O      0.025150000000     0.943950000000     0.487570000000    -0.555009   
O3       O      0.951250000000     0.996970000000     0.493260000000    -0.553389   
O4       O      0.078020000000     0.018460000000     0.481960000000    -0.553291   
O5       O      0.085220000000     0.009330000000     0.556680000000    -0.553047   
O6       O      0.956900000000     0.007850000000     0.567840000000    -0.55223    
O7       O      0.021720000000     0.944100000000     0.563100000000    -0.548617   
O8       O      0.020170000000     0.074020000000     0.561500000000    -0.547332   
O9       O      0.971440000000     0.443570000000     0.488070000000    -0.555539   
O10      O      0.961680000000     0.573290000000     0.488610000000    -0.554724   
O11      O      0.961150000000     0.507610000000     0.424350000000    -0.557609   
O12      O      0.971950000000     0.510260000000     0.552480000000    -0.552666   
O13      O      0.047420000000     0.514150000000     0.546130000000    -0.556178   
O14      O      0.036350000000     0.514820000000     0.417960000000    -0.556277   
O15      O      0.036950000000     0.578940000000     0.481470000000    -0.555914   
O16      O      0.046820000000     0.449360000000     0.482490000000    -0.557346   
O17      O      0.516040000000     0.972250000000     0.581050000000    -0.563031   
O18      O      0.513050000000     0.969290000000     0.453240000000    -0.553857   
O19      O      0.579780000000     0.966760000000     0.515280000000    -0.546203   
O20      O      0.450680000000     0.975760000000     0.519230000000    -0.554787   
O21      O      0.456440000000     0.051610000000     0.512080000000    -0.549351   
O22      O      0.584340000000     0.042980000000     0.518650000000    -0.558251   
O23      O      0.523730000000     0.044880000000     0.450750000000    -0.552491   
O24      O      0.518270000000     0.048650000000     0.579750000000    -0.543677   
O25      O      0.445940000000     0.071420000000     0.014760000000    -0.556816   
O26      O      0.465400000000     0.942960000000     0.018340000000    -0.555855   
O27      O      0.455960000000     0.008000000000     0.080710000000    -0.554584   
O28      O      0.455390000000     0.005570000000     0.952300000000    -0.559516   
O29      O      0.529110000000     0.023230000000     0.951780000000    -0.555389   
O30      O      0.531310000000     0.016420000000     0.080240000000    -0.553997   
O31      O      0.540030000000     0.954500000000     0.012120000000    -0.553758   
O32      O      0.520710000000     0.082790000000     0.020290000000    -0.557613   
O33      O      0.005200000000     0.476020000000     0.920680000000    -0.555362   
O34      O      0.996220000000     0.476430000000     0.048510000000    -0.56054    
O35      O      0.936180000000     0.475410000000     0.980270000000    -0.547662   
O36      O      0.065250000000     0.478010000000     0.989060000000    -0.552292   
O37      O      0.063290000000     0.553840000000     0.979940000000    -0.555816   
O38      O      0.935220000000     0.551340000000     0.988580000000    -0.560707   
O39      O      0.003470000000     0.552480000000     0.048720000000    -0.54657    
O40      O      0.994990000000     0.551720000000     0.919790000000    -0.550845   
O41      O      0.495910000000     0.446930000000     0.950570000000    -0.552367   
O42      O      0.508210000000     0.576750000000     0.951680000000    -0.55143    
O43      O      0.565920000000     0.505120000000     0.956270000000    -0.553756   
O44      O      0.438050000000     0.517950000000     0.945890000000    -0.555001   
O45      O      0.431750000000     0.509020000000     0.020680000000    -0.550389   
O46      O      0.560150000000     0.514190000000     0.031110000000    -0.556387   
O47      O      0.493320000000     0.576750000000     0.025770000000    -0.556988   
O48      O      0.498600000000     0.446990000000     0.026100000000    -0.553756   
O49      O      0.795060000000     0.531950000000     0.900030000000    -0.186695   
O50      O      0.810400000000     0.443650000000     0.878460000000    -0.175639   
O51      O      0.880670000000     0.503700000000     0.879090000000    -0.270775   
O52      O      0.302450000000     0.421500000000     0.950410000000    -0.188956   
O53      O      0.313670000000     0.398030000000     0.038000000000    -0.175815   
O54      O      0.387450000000     0.407370000000     0.983800000000    -0.274745   
O55      O      0.542420000000     0.809140000000     0.100840000000    -0.183458   
O56      O      0.455030000000     0.817440000000     0.126350000000    -0.176293   
O57      O      0.508330000000     0.893120000000     0.122560000000    -0.272144   
O58      O      0.437590000000     0.222520000000     0.098170000000    -0.182129   
O59      O      0.519170000000     0.206790000000     0.136340000000    -0.178815   
O60      O      0.460100000000     0.136320000000     0.125490000000    -0.274661   
O61      O      0.600270000000     0.001250000000     0.724150000000    -0.18511    
O62      O      0.615110000000     0.090310000000     0.705440000000    -0.174735   
O63      O      0.620410000000     0.027510000000     0.637900000000    -0.273547   
O64      O      0.581820000000     0.946960000000     0.305160000000    -0.183935   
O65      O      0.533370000000     0.874230000000     0.333550000000    -0.169796   
O66      O      0.585620000000     0.920790000000     0.393600000000    -0.265126   
O67      O      0.035030000000     0.613750000000     0.683700000000    -0.182875   
O68      O      0.952370000000     0.636860000000     0.651980000000    -0.175033   
O69      O      0.020720000000     0.619330000000     0.592790000000    -0.275393   
O70      O      0.086530000000     0.493250000000     0.185770000000    -0.187508   
O71      O      0.106820000000     0.582370000000     0.173460000000    -0.178077   
O72      O      0.105180000000     0.525140000000     0.101100000000    -0.271826   
O73      O      0.312500000000     0.079530000000     0.584120000000    -0.186655   
O74      O      0.341620000000     0.151170000000     0.534600000000    -0.174295   
O75      O      0.402260000000     0.101630000000     0.583430000000    -0.264098   
O76      O      0.815870000000     0.922140000000     0.601690000000    -0.172311   
O77      O      0.851200000000     0.972860000000     0.669220000000    -0.17469    
O78      O      0.907140000000     0.923970000000     0.614010000000    -0.26739    
O79      O      0.081440000000     0.784130000000     0.575040000000    -0.182953   
O80      O      0.034760000000     0.811610000000     0.648590000000    -0.162739   
O81      O      0.093400000000     0.870420000000     0.608070000000    -0.263519   
O82      O      0.947180000000     0.223410000000     0.584400000000    -0.184535   
O83      O      0.006650000000     0.200810000000     0.649960000000    -0.170912   
O84      O      0.951210000000     0.135510000000     0.615080000000    -0.261602   
S1       S      0.831670000000     0.489100000000     0.904460000000     0.277368   
S2       S      0.335450000000     0.427740000000     0.995450000000     0.276553   
S3       S      0.496890000000     0.842360000000     0.098150000000     0.276534   
S4       S      0.479730000000     0.185180000000     0.102550000000     0.274326   
S5       S      0.593100000000     0.042040000000     0.685790000000     0.277794   
S6       S      0.551950000000     0.925760000000     0.347850000000     0.279447   
S7       S      0.997620000000     0.604510000000     0.642770000000     0.275858   
S8       S      0.080770000000     0.537480000000     0.151080000000     0.277202   
S9       S      0.354580000000     0.098920000000     0.552190000000     0.279365   
S10      S      0.859170000000     0.955100000000     0.616530000000     0.281042   
S11      S      0.055560000000     0.828230000000     0.599150000000     0.280835   
S12      S      0.981650000000     0.182690000000     0.603020000000     0.279955   
V1       V      0.014290000000     0.008020000000     0.484440000000     1.37956    
V2       V      0.021310000000     0.009040000000     0.565440000000     1.41752    
V3       V      0.963560000000     0.508270000000     0.488680000000     1.39939    
V4       V      0.044900000000     0.514400000000     0.481790000000     1.40052    
V5       V      0.514790000000     0.967930000000     0.517220000000     1.406      
V6       V      0.520800000000     0.050120000000     0.515170000000     1.40549    
V7       V      0.452650000000     0.006520000000     0.016500000000     1.4044     
V8       V      0.533390000000     0.019440000000     0.015980000000     1.39722    
V9       V      0.000780000000     0.473290000000     0.984630000000     1.39751    
V10      V      0.999180000000     0.555530000000     0.984240000000     1.396      
V11      V      0.502280000000     0.511810000000     0.947940000000     1.38345    
V12      V      0.495680000000     0.511840000000     0.029030000000     1.40504    


