data_structure

_audit_creation_method RASPA-1.0
_audit_creation_date 2023-5-22
_audit_author_name 'Poobodin Mano'

_cell_length_a    42.8544
_cell_length_b    42.4626
_cell_length_c    28.3562
_cell_angle_alpha 90
_cell_angle_beta  90
_cell_angle_gamma 90
_cell_volume      51600

_symmetry_cell_setting          triclinic
_symmetry_space_group_name_Hall 'P 1'
_symmetry_space_group_name_H-M  'P 1'
_symmetry_Int_Tables_number     1

_symmetry_equiv_pos_as_xyz 'x,y,z'

loop_
_atom_site_label
_atom_site_type_symbol
_atom_site_fract_x
_atom_site_fract_y
_atom_site_fract_z
_atom_site_charge
C1       C      0.541860000000     0.871440000000     0.126440000000     0.47286    
C2       C      0.558820000000     0.861650000000     0.949870000000     0.474385   
C3       C      0.492190000000     0.873520000000     0.022770000000     0.47529    
C4       C      0.607790000000     0.859290000000     0.053470000000     0.475111   
C5       C      0.481590000000     0.875230000000     0.638340000000     0.474562   
C6       C      0.485690000000     0.883740000000     0.459850000000     0.473099   
C7       C      0.426430000000     0.892260000000     0.545670000000     0.475209   
C8       C      0.541740000000     0.866530000000     0.551750000000     0.475989   
C9       C      0.859300000000     0.508330000000     0.985220000000     0.475968   
C10      C      0.850460000000     0.479060000000     0.157950000000     0.474788   
C11      C      0.864120000000     0.436260000000     0.050460000000     0.476039   
C12      C      0.845610000000     0.550840000000     0.091490000000     0.476541   
C13      C      0.852340000000     0.484080000000     0.488380000000     0.475082   
C14      C      0.857300000000     0.521500000000     0.657880000000     0.475614   
C15      C      0.873430000000     0.448480000000     0.597860000000     0.47484    
C16      C      0.836610000000     0.557290000000     0.550090000000     0.473755   
C17      C      0.526660000000     0.211970000000     0.889680000000     0.474214   
C18      C      0.501290000000     0.206520000000     0.064180000000     0.475932   
C19      C      0.456310000000     0.218470000000     0.960000000000     0.473805   
C20      C      0.571080000000     0.200030000000     0.994180000000     0.473118   
C21      C      0.523370000000     0.216320000000     0.549500000000     0.474652   
C22      C      0.559180000000     0.207070000000     0.379630000000     0.476054   
C23      C      0.597300000000     0.202740000000     0.491070000000     0.475105   
C24      C      0.486050000000     0.220730000000     0.437420000000     0.476454   
C25      C      0.175210000000     0.568720000000     0.125820000000     0.476653   
C26      C      0.181950000000     0.534320000000     0.955050000000     0.476181   
C27      C      0.166250000000     0.495560000000     0.062800000000     0.476165   
C28      C      0.191620000000     0.608280000000     0.018690000000     0.474921   
C29      C      0.165250000000     0.519810000000     0.446270000000     0.476564   
C30      C      0.170600000000     0.547990000000     0.619750000000     0.475795   
C31      C      0.164520000000     0.591900000000     0.513940000000     0.474807   
C32      C      0.170910000000     0.475660000000     0.552530000000     0.476348   
C33      C      0.948600000000     0.809070000000     0.007690000000     0.47636    
C34      C      0.834070000000     0.835790000000     0.026210000000     0.475332   
C35      C      0.879530000000     0.765160000000     0.030150000000     0.475419   
C36      C      0.904210000000     0.880660000000     0.005100000000     0.476711   
C37      C      0.878870000000     0.820770000000     0.497200000000     0.475275   
C38      C      0.763440000000     0.846290000000     0.503940000000     0.47587    
C39      C      0.810030000000     0.775240000000     0.508800000000     0.47354    
C40      C      0.833310000000     0.891880000000     0.492720000000     0.473451   
C41      C      0.844070000000     0.092960000000     0.034450000000     0.475111   
C42      C      0.850200000000     0.211950000000     0.044370000000     0.474742   
C43      C      0.788380000000     0.154980000000     0.044000000000     0.473282   
C44      C      0.906520000000     0.149710000000     0.035300000000     0.473549   
C45      C      0.865460000000     0.113300000000     0.518820000000     0.47313    
C46      C      0.881720000000     0.228570000000     0.558600000000     0.473393   
C47      C      0.815420000000     0.179420000000     0.541890000000     0.474693   
C48      C      0.932460000000     0.162830000000     0.535860000000     0.474674   
C49      C      0.172660000000     0.156230000000     0.034760000000     0.47398    
C50      C      0.181380000000     0.275100000000     0.024920000000     0.47541    
C51      C      0.118100000000     0.220590000000     0.038900000000     0.473761   
C52      C      0.235450000000     0.210860000000     0.019440000000     0.472825   
C53      C      0.212500000000     0.139290000000     0.505800000000     0.47691    
C54      C      0.212580000000     0.258490000000     0.500190000000     0.476328   
C55      C      0.270670000000     0.198580000000     0.490850000000     0.476399   
C56      C      0.153520000000     0.199110000000     0.514980000000     0.474971   
C57      C      0.159020000000     0.859450000000     0.999790000000     0.475798   
C58      C      0.269910000000     0.899700000000     0.015210000000     0.476114   
C59      C      0.233980000000     0.824460000000     0.991300000000     0.476049   
C60      C      0.193470000000     0.934750000000     0.021720000000     0.475128   
C61      C      0.094330000000     0.861490000000     0.505140000000     0.475633   
C62      C      0.207830000000     0.893080000000     0.521390000000     0.474964   
C63      C      0.166840000000     0.820270000000     0.518080000000     0.476128   
C64      C      0.135140000000     0.935050000000     0.508530000000     0.477659   
C65      C      0.212260000000     0.089250000000     0.551240000000     0.018178   
C66      C      0.125170000000     0.983270000000     0.461380000000     0.0190402  
C67      C      0.121600000000     0.985380000000     0.548050000000     0.018812   
C68      C      0.151570000000     0.007490000000     0.459540000000    -0.100262   
C69      C      0.182630000000     0.069080000000     0.552750000000    -0.101464   
C70      C      0.148280000000     0.009090000000     0.552600000000    -0.100312   
C71      C      0.175910000000     0.051600000000     0.506510000000     0.0165328  
C72      C      0.157530000000     0.024980000000     0.506080000000     0.0160083  
C73      C      0.214140000000     0.088030000000     0.464020000000     0.0195885  
C74      C      0.184530000000     0.068200000000     0.460350000000    -0.101538   
C75      C      0.179230000000     0.107770000000     0.082300000000     0.0155814  
C76      C      0.171750000000     0.983970000000     0.988620000000     0.0179232  
C77      C      0.171700000000     0.974830000000     0.076410000000     0.015824   
C78      C      0.183630000000     0.017360000000     0.995890000000    -0.103242   
C79      C      0.158850000000     0.078580000000     0.091130000000    -0.103574   
C80      C      0.180200000000     0.009650000000     0.084850000000    -0.103093   
C81      C      0.157730000000     0.058880000000     0.046660000000     0.0184598  
C82      C      0.171850000000     0.030060000000     0.042590000000     0.0188306  
C83      C      0.166260000000     0.104860000000     0.994720000000     0.0168256  
C84      C      0.144730000000     0.077110000000     0.005280000000    -0.103557   
C85      C      0.100460000000     0.197710000000     0.480290000000     0.0177559  
C86      C      0.982370000000     0.149790000000     0.576280000000     0.0159569  
C87      C      0.981460000000     0.161130000000     0.489430000000     0.0176308  
C88      C      0.010880000000     0.171450000000     0.582710000000    -0.102615   
C89      C      0.077590000000     0.170660000000     0.487150000000    -0.10316    
C90      C      0.007560000000     0.185190000000     0.495180000000    -0.102664   
C91      C      0.060250000000     0.175130000000     0.533330000000     0.0176229  
C92      C      0.028340000000     0.176060000000     0.536430000000     0.0174309  
C93      C      0.107410000000     0.202120000000     0.568190000000     0.0155571  
C94      C      0.081680000000     0.177290000000     0.576050000000    -0.102832   
C95      C      0.066450000000     0.231320000000     0.003050000000     0.0194409  
C96      C      0.957670000000     0.141730000000     0.074900000000     0.0180794  
C97      C      0.955670000000     0.150810000000     0.988670000000     0.0177897  
C98      C      0.981170000000     0.168380000000     0.082690000000    -0.101288   
C99      C      0.042720000000     0.205090000000     0.995050000000    -0.101287   
C100     C      0.979460000000     0.177700000000     0.991510000000    -0.101148   
C101     C      0.026270000000     0.194390000000     0.040160000000     0.0161543  
C102     C      0.998020000000     0.178800000000     0.037730000000     0.0159496  
C103     C      0.070250000000     0.220990000000     0.088760000000     0.0173242  
C104     C      0.045010000000     0.195270000000     0.086320000000    -0.101034   
C105     C      0.925420000000     0.803620000000     0.451660000000     0.0165656  
C106     C      0.044810000000     0.845370000000     0.543080000000     0.0168643  
C107     C      0.048020000000     0.852300000000     0.454350000000     0.0154641  
C108     C      0.027160000000     0.814590000000     0.535420000000    -0.102937   
C109     C      0.956880000000     0.820580000000     0.445510000000    -0.102919   
C110     C      0.028020000000     0.822570000000     0.447580000000    -0.102935   
C111     C      0.975980000000     0.820780000000     0.490860000000     0.0183545  
C112     C      0.007820000000     0.817550000000     0.490960000000     0.0175813  
C113     C      0.928400000000     0.810260000000     0.539350000000     0.0185106  
C114     C      0.957770000000     0.830180000000     0.534740000000    -0.103334   
C115     C      0.846770000000     0.938130000000     0.442880000000     0.0145709  
C116     C      0.859790000000     0.058540000000     0.546780000000     0.0175627  
C117     C      0.850440000000     0.072360000000     0.460560000000     0.0148194  
C118     C      0.876020000000     0.028460000000     0.530990000000    -0.104087   
C119     C      0.834930000000     0.972470000000     0.439850000000    -0.10331    
C120     C      0.863530000000     0.039920000000     0.445970000000    -0.103772   
C121     C      0.842510000000     0.990240000000     0.484840000000     0.0186563  
C122     C      0.860550000000     0.016820000000     0.486430000000     0.0195251  
C123     C      0.846450000000     0.941920000000     0.532290000000     0.0177532  
C124     C      0.830670000000     0.973860000000     0.528570000000    -0.10369    
C125     C      0.992790000000     0.792930000000     0.956360000000     0.0170656  
C126     C      0.113100000000     0.835580000000     0.038610000000     0.017186   
C127     C      0.111470000000     0.849880000000     0.951640000000     0.014968   
C128     C      0.097960000000     0.804100000000     0.026880000000    -0.103176   
C129     C      0.022890000000     0.811690000000     0.947590000000    -0.103059   
C130     C      0.093500000000     0.819200000000     0.941470000000    -0.102796   
C131     C      0.044450000000     0.810760000000     0.990200000000     0.0186496  
C132     C      0.076200000000     0.809000000000     0.985640000000     0.017541   
C133     C      0.999920000000     0.797010000000     0.043760000000     0.0182622  
C134     C      0.028750000000     0.817540000000     0.037350000000    -0.103042   
C135     C      0.834340000000     0.044750000000     0.987130000000     0.0190814  
C136     C      0.923890000000     0.930860000000     0.037940000000     0.0206791  
C137     C      0.906840000000     0.928690000000     0.954810000000     0.0174908  
C138     C      0.899470000000     0.955090000000     0.052050000000    -0.101102   
C139     C      0.860090000000     0.021150000000     0.974940000000    -0.101729   
C140     C      0.883850000000     0.956130000000     0.962120000000    -0.100759   
C141     C      0.871110000000     0.001460000000     0.016970000000     0.0168797  
C142     C      0.886020000000     0.973070000000     0.009980000000     0.0159033  
C143     C      0.844360000000     0.040430000000     0.072940000000     0.0182833  
C144     C      0.871310000000     0.017330000000     0.065540000000    -0.10138    
C145     C      0.169880000000     0.770440000000     0.563310000000     0.0173377  
C146     C      0.190250000000     0.640980000000     0.488920000000     0.0183024  
C147     C      0.134080000000     0.641030000000     0.518190000000     0.0186403  
C148     C      0.181760000000     0.674000000000     0.470690000000    -0.104199   
C149     C      0.149440000000     0.742020000000     0.550790000000    -0.102407   
C150     C      0.142230000000     0.672990000000     0.539880000000    -0.104059   
C151     C      0.162930000000     0.724280000000     0.508780000000     0.0165989  
C152     C      0.162500000000     0.692140000000     0.506630000000     0.0170981  
C153     C      0.190810000000     0.773160000000     0.481040000000     0.0182525  
C154     C      0.171750000000     0.744380000000     0.466310000000    -0.102373   
C155     C      0.146480000000     0.422890000000     0.549150000000     0.0167653  
C156     C      0.231590000000     0.308670000000     0.533620000000     0.0191972  
C157     C      0.196820000000     0.308530000000     0.462240000000     0.0170872  
C158     C      0.210530000000     0.332370000000     0.558380000000    -0.103022   
C159     C      0.157410000000     0.398870000000     0.512160000000    -0.102847   
C160     C      0.174760000000     0.332490000000     0.485630000000    -0.103269   
C161     C      0.187190000000     0.382930000000     0.528740000000     0.0171952  
C162     C      0.192170000000     0.351520000000     0.522640000000     0.0179655  
C163     C      0.200970000000     0.429210000000     0.579840000000     0.0183736  
C164     C      0.213160000000     0.404950000000     0.544630000000    -0.102372   
C165     C      0.256560000000     0.773800000000     0.018700000000     0.0181615  
C166     C      0.176880000000     0.660260000000     0.985740000000     0.0167978  
C167     C      0.225710000000     0.653540000000     0.035160000000     0.0179956  
C168     C      0.194590000000     0.682770000000     0.952480000000    -0.104065   
C169     C      0.235620000000     0.745320000000     0.028080000000    -0.102002   
C170     C      0.243580000000     0.675080000000     0.001890000000    -0.103804   
C171     C      0.224910000000     0.729840000000     0.982360000000     0.0169796  
C172     C      0.221340000000     0.698040000000     0.978990000000     0.0188807  
C173     C      0.235460000000     0.779060000000     0.936760000000     0.0168948  
C174     C      0.212460000000     0.751860000000     0.944660000000    -0.102588   
C175     C      0.170920000000     0.325750000000     0.984110000000     0.016051   
C176     C      0.182280000000     0.445170000000     0.099220000000     0.0194016  
C177     C      0.131760000000     0.449030000000     0.055060000000     0.0161212  
C178     C      0.193470000000     0.418630000000     0.067280000000    -0.102606   
C179     C      0.149050000000     0.351500000000     0.003770000000    -0.103252   
C180     C      0.141420000000     0.421740000000     0.022310000000    -0.102875   
C181     C      0.164990000000     0.369130000000     0.043760000000     0.0180037  
C182     C      0.165790000000     0.401180000000     0.046220000000     0.0174929  
C183     C      0.200530000000     0.324430000000     0.060750000000     0.0193536  
C184     C      0.178390000000     0.348420000000     0.082300000000    -0.103195   
C185     C      0.154410000000     0.512290000000     0.886060000000     0.0207525  
C186     C      0.201510000000     0.565070000000     0.689330000000     0.0184233  
C187     C      0.143890000000     0.561740000000     0.694600000000     0.0189568  
C188     C      0.206110000000     0.544850000000     0.733480000000    -0.101721   
C189     C      0.149650000000     0.531360000000     0.841250000000    -0.101608   
C190     C      0.145250000000     0.541380000000     0.738970000000    -0.101721   
C191     C      0.179160000000     0.534370000000     0.811280000000     0.0165571  
C192     C      0.176880000000     0.542130000000     0.764190000000     0.0165397  
C193     C      0.211910000000     0.517750000000     0.884120000000     0.0179312  
C194     C      0.210810000000     0.535310000000     0.836710000000    -0.101292   
C195     C      0.143910000000     0.584130000000     0.195990000000     0.0181974  
C196     C      0.192210000000     0.504710000000     0.372330000000     0.019737   
C197     C      0.134900000000     0.511000000000     0.372670000000     0.0182571  
C198     C      0.196960000000     0.530070000000     0.334950000000    -0.101195   
C199     C      0.139470000000     0.560160000000     0.235970000000    -0.101266   
C200     C      0.135830000000     0.535860000000     0.333430000000    -0.101289   
C201     C      0.169150000000     0.552830000000     0.264280000000     0.0163553  
C202     C      0.167200000000     0.538190000000     0.307550000000     0.0163501  
C203     C      0.201340000000     0.581260000000     0.201420000000     0.0202754  
C204     C      0.200770000000     0.555950000000     0.239510000000    -0.101161   
C205     C      0.316160000000     0.183880000000     0.441960000000     0.0185157  
C206     C      0.439520000000     0.255020000000     0.435990000000     0.0174708  
C207     C      0.437670000000     0.201570000000     0.398940000000     0.0185487  
C208     C      0.412130000000     0.247060000000     0.468610000000    -0.10271    
C209     C      0.338120000000     0.207060000000     0.417760000000    -0.103383   
C210     C      0.408890000000     0.192690000000     0.427880000000    -0.102082   
C211     C      0.360470000000     0.221250000000     0.453330000000     0.0184571  
C212     C      0.391900000000     0.221650000000     0.446570000000     0.0171845  
C213     C      0.323480000000     0.212010000000     0.519570000000     0.0172292  
C214     C      0.345160000000     0.236200000000     0.496050000000    -0.103818   
C215     C      0.769210000000     0.207790000000     0.511840000000     0.0171692  
C216     C      0.638110000000     0.167360000000     0.522710000000     0.0166218  
C217     C      0.651950000000     0.220670000000     0.487700000000     0.0172527  
C218     C      0.663260000000     0.171890000000     0.560850000000    -0.104156   
C219     C      0.738050000000     0.195290000000     0.493820000000    -0.10327    
C220     C      0.676480000000     0.225160000000     0.525960000000    -0.103563   
C221     C      0.718240000000     0.183570000000     0.534440000000     0.0192084  
C222     C      0.688420000000     0.193460000000     0.541920000000     0.0187072  
C223     C      0.765170000000     0.172480000000     0.583450000000     0.0172655  
C224     C      0.733910000000     0.159360000000     0.565630000000    -0.10442    
C225     C      0.280180000000     0.190510000000     0.973480000000     0.0173638  
C226     C      0.409700000000     0.252520000000     0.968350000000     0.0170816  
C227     C      0.405380000000     0.199900000000     0.928860000000     0.017762   
C228     C      0.382900000000     0.244380000000     0.002190000000    -0.102862   
C229     C      0.307040000000     0.208780000000     0.950960000000    -0.102928   
C230     C      0.377580000000     0.191000000000     0.959990000000    -0.102318   
C231     C      0.329990000000     0.220300000000     0.987940000000     0.0180499  
C232     C      0.361450000000     0.219950000000     0.980250000000     0.0171329  
C233     C      0.288870000000     0.218500000000     0.050700000000     0.0171378  
C234     C      0.315400000000     0.238020000000     0.028860000000    -0.103464   
C235     C      0.621770000000     0.219350000000     0.024490000000     0.0166872  
C236     C      0.737530000000     0.140540000000     0.009270000000     0.0174048  
C237     C      0.740180000000     0.167500000000     0.088370000000     0.0169449  
C238     C      0.710860000000     0.162060000000     0.994040000000    -0.102497   
C239     C      0.644710000000     0.204590000000     0.059990000000    -0.103917   
C240     C      0.713730000000     0.190050000000     0.073970000000    -0.103338   
C241     C      0.661730000000     0.177440000000     0.036810000000     0.0183742  
C242     C      0.693440000000     0.174940000000     0.036460000000     0.0178824  
C243     C      0.617900000000     0.167430000000     0.980910000000     0.0171443  
C244     C      0.640630000000     0.152560000000     0.015760000000    -0.103162   
C245     C      0.498260000000     0.192310000000     0.619660000000     0.0186152  
C246     C      0.544920000000     0.242190000000     0.819780000000     0.0174793  
C247     C      0.539560000000     0.184060000000     0.815510000000     0.0189594  
C248     C      0.528100000000     0.246470000000     0.772350000000    -0.101735   
C249     C      0.514710000000     0.187250000000     0.666810000000    -0.101468   
C250     C      0.520390000000     0.185510000000     0.770280000000    -0.101932   
C251     C      0.519690000000     0.217530000000     0.695100000000     0.0163577  
C252     C      0.524800000000     0.216280000000     0.743140000000     0.0165379  
C253     C      0.510060000000     0.249420000000     0.618980000000     0.0180627  
C254     C      0.525810000000     0.247910000000     0.667500000000    -0.101444   
C255     C      0.491520000000     0.175670000000     0.137320000000     0.0177241  
C256     C      0.574600000000     0.232300000000     0.304250000000     0.0191731  
C257     C      0.569870000000     0.174480000000     0.308630000000     0.0186999  
C258     C      0.548900000000     0.235280000000     0.267170000000    -0.101079   
C259     C      0.517350000000     0.173370000000     0.174750000000    -0.101032   
C260     C      0.544620000000     0.173350000000     0.270420000000    -0.100882   
C261     C      0.524430000000     0.204320000000     0.200730000000     0.0162158  
C262     C      0.540570000000     0.204140000000     0.242750000000     0.0160962  
C263     C      0.491730000000     0.233820000000     0.139990000000     0.0200868  
C264     C      0.519020000000     0.235310000000     0.174360000000    -0.101179   
C265     C      0.864510000000     0.397800000000     0.639660000000     0.0170843  
C266     C      0.896910000000     0.282030000000     0.533460000000     0.0172466  
C267     C      0.869980000000     0.272820000000     0.612070000000     0.0164777  
C268     C      0.917810000000     0.307130000000     0.556260000000    -0.104191   
C269     C      0.862180000000     0.365220000000     0.616690000000    -0.102006   
C270     C      0.889940000000     0.298730000000     0.634120000000    -0.103297   
C271     C      0.893580000000     0.353430000000     0.598620000000     0.0173811  
C272     C      0.900330000000     0.322030000000     0.596920000000     0.0186496  
C273     C      0.915210000000     0.408250000000     0.598680000000     0.0178426  
C274     C      0.913080000000     0.377170000000     0.571560000000    -0.102903   
C275     C      0.845080000000     0.613540000000     0.563820000000     0.0172798  
C276     C      0.795070000000     0.724200000000     0.473640000000     0.0168479  
C277     C      0.823110000000     0.727460000000     0.552930000000     0.0169049  
C278     C      0.777670000000     0.694580000000     0.490750000000    -0.10453    
C279     C      0.844980000000     0.642630000000     0.532470000000    -0.103568   
C280     C      0.806030000000     0.697820000000     0.568720000000    -0.103692   
C281     C      0.812160000000     0.650120000000     0.516640000000     0.0199445  
C282     C      0.797780000000     0.677890000000     0.526570000000     0.0190905  
C283     C      0.795480000000     0.594240000000     0.524230000000     0.0174824  
C284     C      0.795510000000     0.623420000000     0.491930000000    -0.104752   
C285     C      0.898280000000     0.389290000000     0.051060000000     0.0175378  
C286     C      0.836830000000     0.263790000000     0.010170000000     0.0173037  
C287     C      0.864400000000     0.260010000000     0.088830000000     0.0168813  
C288     C      0.858960000000     0.290060000000     0.995100000000    -0.103074   
C289     C      0.890890000000     0.357540000000     0.074400000000    -0.103481   
C290     C      0.887120000000     0.286240000000     0.074050000000    -0.103898   
C291     C      0.868350000000     0.338900000000     0.044040000000     0.0181104  
C292     C      0.871360000000     0.307220000000     0.038000000000     0.018189   
C293     C      0.847040000000     0.388460000000     0.007770000000     0.0178407  
C294     C      0.839090000000     0.356390000000     0.028920000000    -0.102681   
C295     C      0.887070000000     0.717940000000     0.079580000000     0.0183804  
C296     C      0.812410000000     0.598300000000     0.084270000000     0.017002   
C297     C      0.864020000000     0.601270000000     0.125600000000     0.018576   
C298     C      0.821640000000     0.625160000000     0.050750000000    -0.102973   
C299     C      0.861510000000     0.699370000000     0.104310000000    -0.103455   
C300     C      0.874380000000     0.628480000000     0.094120000000    -0.102433   
C301     C      0.845920000000     0.677690000000     0.069210000000     0.0182248  
C302     C      0.846390000000     0.645750000000     0.073510000000     0.0176912  
C303     C      0.857500000000     0.714340000000     0.002560000000     0.0160399  
C304     C      0.832060000000     0.694310000000     0.026700000000    -0.103603   
C305     C      0.832820000000     0.519300000000     0.909720000000     0.0172699  
C306     C      0.886290000000     0.548150000000     0.722340000000     0.0167738  
C307     C      0.829760000000     0.533900000000     0.732300000000     0.0182479  
C308     C      0.893570000000     0.536570000000     0.772520000000    -0.103565   
C309     C      0.834830000000     0.548190000000     0.878030000000    -0.103351   
C310     C      0.836580000000     0.519490000000     0.780320000000    -0.103389   
C311     C      0.864210000000     0.545560000000     0.849000000000     0.0179971  
C312     C      0.864380000000     0.535820000000     0.802970000000     0.0191096  
C313     C      0.892250000000     0.519460000000     0.915250000000     0.0150348  
C314     C      0.893230000000     0.546730000000     0.879510000000    -0.10309    
C315     C      0.824060000000     0.455440000000     0.425250000000     0.0164025  
C316     C      0.876600000000     0.473340000000     0.234790000000     0.0175857  
C317     C      0.817170000000     0.469210000000     0.227710000000     0.0152207  
C318     C      0.875370000000     0.448470000000     0.273390000000    -0.104015   
C319     C      0.815190000000     0.465500000000     0.374920000000    -0.10384    
C320     C      0.817070000000     0.446380000000     0.269910000000    -0.103749   
C321     C      0.843910000000     0.466750000000     0.343710000000     0.0192401  
C322     C      0.845400000000     0.452600000000     0.300410000000     0.0188881  
C323     C      0.879260000000     0.474250000000     0.412540000000     0.0178665  
C324     C      0.870370000000     0.486380000000     0.363810000000    -0.103545   
C325     C      0.260790000000     0.886880000000     0.489850000000     0.0171531  
C326     C      0.382850000000     0.929420000000     0.557790000000     0.0177985  
C327     C      0.375990000000     0.879850000000     0.509020000000     0.0177102  
C328     C      0.350170000000     0.924950000000     0.579180000000    -0.104885   
C329     C      0.288370000000     0.908930000000     0.482280000000    -0.103712   
C330     C      0.343340000000     0.875490000000     0.529140000000    -0.103554   
C331     C      0.302200000000     0.918020000000     0.529200000000     0.018969   
C332     C      0.330040000000     0.906780000000     0.544880000000     0.0200545  
C333     C      0.251630000000     0.912040000000     0.570400000000     0.0170211  
C334     C      0.279430000000     0.934260000000     0.561750000000    -0.104559   
C335     C      0.711400000000     0.846050000000     0.466260000000     0.0174814  
C336     C      0.595150000000     0.880650000000     0.577390000000     0.0177625  
C337     C      0.584750000000     0.829090000000     0.536390000000     0.0176607  
C338     C      0.623640000000     0.886350000000     0.546210000000    -0.102873   
C339     C      0.681640000000     0.830180000000     0.484780000000    -0.103638   
C340     C      0.612530000000     0.834450000000     0.503200000000    -0.103661   
C341     C      0.667580000000     0.849900000000     0.523950000000     0.0181377  
C342     C      0.636360000000     0.855580000000     0.526850000000     0.0180407  
C343     C      0.719710000000     0.872910000000     0.544550000000     0.0178779  
C344     C      0.689760000000     0.858280000000     0.563740000000    -0.103094   
C345     C      0.438780000000     0.852160000000     0.026560000000     0.0188543  
C346     C      0.317760000000     0.925080000000     0.982270000000     0.0165911  
C347     C      0.316580000000     0.906150000000     0.065490000000     0.0189017  
C348     C      0.348790000000     0.907750000000     0.973590000000    -0.101876   
C349     C      0.410650000000     0.867010000000     0.050980000000    -0.103611   
C350     C      0.344390000000     0.884440000000     0.057670000000    -0.10244    
C351     C      0.396590000000     0.892380000000     0.019870000000     0.0181246  
C352     C      0.365150000000     0.897550000000     0.019000000000     0.0164151  
C353     C      0.449610000000     0.902380000000     0.982530000000     0.0169319  
C354     C      0.419420000000     0.916980000000     0.001670000000    -0.102687   
C355     C      0.781440000000     0.831420000000     0.992760000000     0.0193331  
C356     C      0.658410000000     0.880990000000     0.081270000000     0.0172653  
C357     C      0.653300000000     0.823830000000     0.061240000000     0.018253   
C358     C      0.688950000000     0.883390000000     0.053360000000    -0.102395   
C359     C      0.749860000000     0.821400000000     0.012830000000    -0.104522   
C360     C      0.682010000000     0.825070000000     0.029410000000    -0.10284    
C361     C      0.735540000000     0.847970000000     0.041360000000     0.0168582  
C362     C      0.703900000000     0.851340000000     0.044640000000     0.0170054  
C363     C      0.790010000000     0.855490000000     0.074030000000     0.0181044  
C364     C      0.757950000000     0.870790000000     0.065120000000    -0.103981   
C365     C      0.559230000000     0.829520000000     0.876410000000     0.018061   
C366     C      0.482580000000     0.901100000000     0.716740000000     0.0191679  
C367     C      0.475870000000     0.843300000000     0.711560000000     0.0173927  
C368     C      0.511390000000     0.898520000000     0.748070000000    -0.101417   
C369     C      0.532630000000     0.832310000000     0.840370000000    -0.101191   
C370     C      0.502940000000     0.837410000000     0.746050000000    -0.101252   
C371     C      0.531360000000     0.863790000000     0.813860000000     0.0160497  
C372     C      0.514080000000     0.866680000000     0.773000000000     0.0162761  
C373     C      0.570830000000     0.886450000000     0.872710000000     0.0188108  
C374     C      0.543910000000     0.893170000000     0.838870000000    -0.10097    
C375     C      0.546170000000     0.903490000000     0.199270000000     0.0170865  
C376     C      0.472520000000     0.860380000000     0.382480000000     0.0189873  
C377     C      0.488660000000     0.916440000000     0.387240000000     0.0169891  
C378     C      0.495130000000     0.853250000000     0.342480000000    -0.101785   
C379     C      0.523150000000     0.909250000000     0.239870000000    -0.101946   
C380     C      0.509490000000     0.913010000000     0.343300000000    -0.10149    
C381     C      0.515700000000     0.880010000000     0.269270000000     0.0166438  
C382     C      0.505050000000     0.882530000000     0.315110000000     0.0162996  
C383     C      0.538480000000     0.845470000000     0.204350000000     0.0183112  
C384     C      0.513570000000     0.848890000000     0.242460000000    -0.102199   
H1       H      0.185920000000     0.052540000000     0.582640000000     0.0406362  
H2       H      0.102550000000     0.996070000000     0.459230000000     0.0218699  
H3       H      0.234490000000     0.071780000000     0.465790000000     0.0220944  
H4       H      0.189020000000     0.051250000000     0.431370000000     0.0407291  
H5       H      0.145110000000     0.024270000000     0.431100000000     0.0404556  
H6       H      0.140440000000     0.026840000000     0.578830000000     0.0404979  
H7       H      0.212950000000     0.104640000000     0.582940000000     0.0313341  
H8       H      0.126630000000     0.967540000000     0.430120000000     0.0309184  
H9       H      0.164770000000     0.083630000000     0.449790000000     0.0496544  
H10      H      0.169080000000     0.996710000000     0.566950000000     0.0488629  
H11      H      0.216820000000     0.102420000000     0.431520000000     0.0308923  
H12      H      0.099350000000     0.998660000000     0.544290000000     0.0222614  
H13      H      0.162360000000     0.084490000000     0.560870000000     0.0483897  
H14      H      0.173440000000     0.995230000000     0.449160000000     0.0492086  
H15      H      0.119960000000     0.971180000000     0.580890000000     0.0313174  
H16      H      0.232840000000     0.073300000000     0.552840000000     0.0228391  
H17      H      0.168430000000     0.066290000000     0.122310000000     0.0408317  
H18      H      0.145850000000     0.984550000000     0.986080000000     0.023868   
H19      H      0.189170000000     0.095720000000     0.982350000000     0.0247255  
H20      H      0.140250000000     0.062820000000     0.973360000000     0.0412351  
H21      H      0.177750000000     0.031670000000     0.964600000000     0.0417914  
H22      H      0.167480000000     0.016650000000     0.117200000000     0.0410353  
H23      H      0.177150000000     0.123510000000     0.113450000000     0.032608   
H24      H      0.180830000000     0.975170000000     0.954360000000     0.0324011  
H25      H      0.121450000000     0.086590000000     0.015290000000     0.0493709  
H26      H      0.205650000000     0.011720000000     0.091750000000     0.0481648  
H27      H      0.155850000000     0.118750000000     0.965450000000     0.0318802  
H28      H      0.145960000000     0.972290000000     0.079830000000     0.0244617  
H29      H      0.134800000000     0.086240000000     0.100370000000     0.0475828  
H30      H      0.209560000000     0.016820000000     0.997180000000     0.0512168  
H31      H      0.182530000000     0.960430000000     0.104760000000     0.0319417  
H32      H      0.204020000000     0.100100000000     0.080280000000     0.0252379  
H33      H      0.062890000000     0.167850000000     0.455470000000     0.0411726  
H34      H      0.990950000000     0.125250000000     0.571710000000     0.0239363  
H35      H      0.096570000000     0.225860000000     0.570900000000     0.0239506  
H36      H      0.069320000000     0.184350000000     0.608690000000     0.0408059  
H37      H      0.025500000000     0.160150000000     0.610170000000     0.0408805  
H38      H      0.019460000000     0.188500000000     0.461040000000     0.0411227  
H39      H      0.112790000000     0.194320000000     0.446200000000     0.0320295  
H40      H      0.968230000000     0.150330000000     0.609120000000     0.0322991  
H41      H      0.092580000000     0.153900000000     0.582220000000     0.047493   
H42      H      0.996910000000     0.208450000000     0.503310000000     0.0503907  
H43      H      0.124760000000     0.200140000000     0.597160000000     0.0320483  
H44      H      0.991990000000     0.137910000000     0.480600000000     0.0238826  
H45      H      0.091090000000     0.148340000000     0.489510000000     0.0506385  
H46      H      0.003120000000     0.194780000000     0.596030000000     0.0481761  
H47      H      0.966510000000     0.168290000000     0.459280000000     0.032072   
H48      H      0.087130000000     0.220140000000     0.477930000000     0.0235043  
H49      H      0.025900000000     0.214710000000     0.969010000000     0.040616   
H50      H      0.970920000000     0.119520000000     0.069110000000     0.0226033  
H51      H      0.058670000000     0.243820000000     0.096850000000     0.0227173  
H52      H      0.029490000000     0.199600000000     0.116990000000     0.0404193  
H53      H      0.997790000000     0.159380000000     0.109490000000     0.0404815  
H54      H      0.995040000000     0.174310000000     0.960660000000     0.0405362  
H55      H      0.079850000000     0.235310000000     0.970020000000     0.0309667  
H56      H      0.943610000000     0.138570000000     0.107490000000     0.0316458  
H57      H      0.056360000000     0.171940000000     0.091100000000     0.0477634  
H58      H      0.967010000000     0.200490000000     0.987260000000     0.0484037  
H59      H      0.086450000000     0.215580000000     0.118290000000     0.0308983  
H60      H      0.968560000000     0.128460000000     0.982270000000     0.0227552  
H61      H      0.054720000000     0.184470000000     0.979090000000     0.0500351  
H62      H      0.968790000000     0.189070000000     0.097730000000     0.0486796  
H63      H      0.940130000000     0.154820000000     0.957870000000     0.031347   
H64      H      0.053460000000     0.253440000000     0.010730000000     0.0217092  
H65      H      0.968910000000     0.807880000000     0.416620000000     0.0407935  
H66      H      0.027710000000     0.864690000000     0.548980000000     0.0251044  
H67      H      0.935340000000     0.785260000000     0.544670000000     0.0229056  
H68      H      0.970690000000     0.828750000000     0.568300000000     0.0415575  
H69      H      0.014150000000     0.807450000000     0.567310000000     0.0405492  
H70      H      0.014970000000     0.825450000000     0.414240000000     0.040679   
H71      H      0.910800000000     0.808260000000     0.420030000000     0.031965   
H72      H      0.059140000000     0.843010000000     0.575550000000     0.0319167  
H73      H      0.950850000000     0.855290000000     0.530950000000     0.0513721  
H74      H      0.043630000000     0.801880000000     0.443000000000     0.047712   
H75      H      0.915460000000     0.817940000000     0.571310000000     0.0317374  
H76      H      0.032410000000     0.873180000000     0.452180000000     0.0248131  
H77      H      0.952760000000     0.845290000000     0.434180000000     0.048336   
H78      H      0.044550000000     0.795440000000     0.530210000000     0.0487674  
H79      H      0.064750000000     0.853990000000     0.424510000000     0.0325973  
H80      H      0.929910000000     0.777830000000     0.452860000000     0.0234449  
H81      H      0.845570000000     0.982990000000     0.407970000000     0.0410345  
H82      H      0.835130000000     0.053110000000     0.555920000000     0.0245327  
H83      H      0.872050000000     0.945370000000     0.536340000000     0.0245308  
H84      H      0.833380000000     0.987420000000     0.561660000000     0.0414982  
H85      H      0.877040000000     0.010980000000     0.559920000000     0.0418708  
H86      H      0.850930000000     0.032580000000     0.413730000000     0.0411607  
H87      H      0.836330000000     0.924510000000     0.413350000000     0.0323079  
H88      H      0.871540000000     0.067010000000     0.579350000000     0.0321959  
H89      H      0.805090000000     0.970140000000     0.524840000000     0.0501359  
H90      H      0.888590000000     0.042430000000     0.436600000000     0.0476223  
H91      H      0.837800000000     0.930240000000     0.564830000000     0.0323581  
H92      H      0.824530000000     0.070960000000     0.460150000000     0.0251538  
H93      H      0.809210000000     0.972390000000     0.434770000000     0.0475141  
H94      H      0.900820000000     0.034070000000     0.523000000000     0.0503884  
H95      H      0.857290000000     0.089860000000     0.433310000000     0.0324482  
H96      H      0.872450000000     0.938260000000     0.437270000000     0.025026   
H97      H      0.033850000000     0.800900000000     0.916040000000     0.040849   
H98      H      0.094720000000     0.852530000000     0.049720000000     0.0244802  
H99      H      0.007480000000     0.772000000000     0.046360000000     0.022978   
H100     H      0.043710000000     0.814590000000     0.068720000000     0.0416536  
H101     H      0.087040000000     0.793130000000     0.058200000000     0.0408933  
H102     H      0.078370000000     0.823410000000     0.910500000000     0.0405269  
H103     H      0.976400000000     0.797400000000     0.926740000000     0.0322093  
H104     H      0.128980000000     0.832020000000     0.069110000000     0.0323747  
H105     H      0.021410000000     0.842650000000     0.037410000000     0.0513346  
H106     H      0.110380000000     0.800490000000     0.931370000000     0.0466259  
H107     H      0.988430000000     0.803330000000     0.077590000000     0.0317242  
H108     H      0.094270000000     0.869410000000     0.954550000000     0.0250863  
H109     H      0.017020000000     0.836600000000     0.939450000000     0.0489406  
H110     H      0.116600000000     0.787310000000     0.016220000000     0.0491554  
H111     H      0.126700000000     0.855170000000     0.920920000000     0.0321453  
H112     H      0.998650000000     0.767400000000     0.955830000000     0.0234921  
H113     H      0.850340000000     0.006230000000     0.946410000000     0.0406927  
H114     H      0.945170000000     0.943610000000     0.025950000000     0.0219341  
H115     H      0.822440000000     0.026680000000     0.077350000000     0.02309    
H116     H      0.869240000000     0.999820000000     0.094440000000     0.0406107  
H117     H      0.911310000000     0.971260000000     0.077100000000     0.0407997  
H118     H      0.888320000000     0.972830000000     0.932750000000     0.0405045  
H119     H      0.831130000000     0.061270000000     0.957120000000     0.0308852  
H120     H      0.930570000000     0.916620000000     0.069250000000     0.0307184  
H121     H      0.893770000000     0.030120000000     0.069820000000     0.0488585  
H122     H      0.859720000000     0.946890000000     0.958300000000     0.047624   
H123     H      0.848410000000     0.053800000000     0.106080000000     0.0313759  
H124     H      0.929560000000     0.938610000000     0.942940000000     0.0225236  
H125     H      0.880480000000     0.034180000000     0.960580000000     0.0496244  
H126     H      0.880090000000     0.942980000000     0.070800000000     0.0507301  
H127     H      0.898040000000     0.913140000000     0.926220000000     0.0310659  
H128     H      0.812100000000     0.031490000000     0.991300000000     0.0219251  
H129     H      0.148060000000     0.727090000000     0.582870000000     0.0412306  
H130     H      0.201960000000     0.627550000000     0.460250000000     0.0275263  
H131     H      0.214240000000     0.764900000000     0.492570000000     0.0222412  
H132     H      0.185000000000     0.731540000000     0.438830000000     0.0406294  
H133     H      0.168350000000     0.671920000000     0.437290000000     0.047534   
H134     H      0.119900000000     0.685400000000     0.547210000000     0.0415331  
H135     H      0.158240000000     0.784060000000     0.591800000000     0.031438   
H136     H      0.207390000000     0.643190000000     0.518220000000     0.0286457  
H137     H      0.149820000000     0.752600000000     0.449370000000     0.0502752  
H138     H      0.154840000000     0.669320000000     0.573700000000     0.0489739  
H139     H      0.194300000000     0.788760000000     0.450020000000     0.030637   
H140     H      0.120060000000     0.644680000000     0.485630000000     0.0258181  
H141     H      0.125500000000     0.750150000000     0.541900000000     0.0481482  
H142     H      0.204140000000     0.686270000000     0.463390000000     0.0419362  
H143     H      0.119250000000     0.627880000000     0.543680000000     0.0303728  
H144     H      0.192560000000     0.761700000000     0.577210000000     0.0242697  
H145     H      0.138140000000     0.381680000000     0.507110000000     0.0415423  
H146     H      0.250320000000     0.321910000000     0.515030000000     0.0218601  
H147     H      0.195250000000     0.416750000000     0.613250000000     0.0225762  
H148     H      0.233740000000     0.392940000000     0.559850000000     0.0411772  
H149     H      0.224650000000     0.346550000000     0.583170000000     0.0415011  
H150     H      0.165310000000     0.347770000000     0.457200000000     0.0416475  
H151     H      0.125880000000     0.435720000000     0.535050000000     0.0317454  
H152     H      0.243060000000     0.293360000000     0.560300000000     0.0298745  
H153     H      0.221840000000     0.417680000000     0.512980000000     0.0511919  
H154     H      0.154990000000     0.319910000000     0.502640000000     0.0484658  
H155     H      0.219610000000     0.446620000000     0.587830000000     0.0306656  
H156     H      0.214040000000     0.321560000000     0.440320000000     0.0247134  
H157     H      0.161850000000     0.410970000000     0.478050000000     0.0489126  
H158     H      0.193540000000     0.319210000000     0.580520000000     0.0517736  
H159     H      0.182950000000     0.293020000000     0.438590000000     0.0301434  
H160     H      0.139000000000     0.409930000000     0.581320000000     0.0245037  
H161     H      0.247830000000     0.729190000000     0.052560000000     0.0413837  
H162     H      0.163800000000     0.674530000000     0.012040000000     0.0261096  
H163     H      0.257340000000     0.769380000000     0.921350000000     0.0243924  
H164     H      0.209560000000     0.739500000000     0.910370000000     0.0411928  
H165     H      0.177560000000     0.700220000000     0.938770000000     0.041587   
H166     H      0.263390000000     0.686360000000     0.020450000000     0.0413752  
H167     H      0.260890000000     0.786640000000     0.052240000000     0.0299874  
H168     H      0.159600000000     0.646650000000     0.964720000000     0.029844   
H169     H      0.189430000000     0.761310000000     0.955870000000     0.048588   
H170     H      0.254230000000     0.660410000000     0.973670000000     0.0504761  
H171     H      0.225210000000     0.795720000000     0.910800000000     0.031581   
H172     H      0.217130000000     0.667840000000     0.065360000000     0.0226982  
H173     H      0.214450000000     0.753560000000     0.047080000000     0.0511088  
H174     H      0.204050000000     0.669310000000     0.922060000000     0.0480684  
H175     H      0.242080000000     0.635700000000     0.049730000000     0.0311902  
H176     H      0.279450000000     0.765000000000     0.005690000000     0.0220619  
H177     H      0.142810000000     0.367300000000     0.974010000000     0.0416131  
H178     H      0.170520000000     0.434530000000     0.130360000000     0.0222269  
H179     H      0.220770000000     0.337250000000     0.045410000000     0.0221965  
H180     H      0.190100000000     0.361280000000     0.111250000000     0.0415353  
H181     H      0.210190000000     0.403650000000     0.086760000000     0.0414691  
H182     H      0.119960000000     0.408230000000     0.013720000000     0.0413383  
H183     H      0.157630000000     0.310870000000     0.958850000000     0.0305166  
H184     H      0.202650000000     0.458830000000     0.112350000000     0.0298585  
H185     H      0.158750000000     0.335560000000     0.099220000000     0.0522313  
H186     H      0.151270000000     0.431370000000     0.989030000000     0.048333   
H187     H      0.209700000000     0.308720000000     0.088890000000     0.0301976  
H188     H      0.118230000000     0.439130000000     0.085080000000     0.0244102  
H189     H      0.127290000000     0.340480000000     0.017280000000     0.0480365  
H190     H      0.207000000000     0.429110000000     0.037730000000     0.0525433  
H191     H      0.116260000000     0.465330000000     0.035260000000     0.0306893  
H192     H      0.190190000000     0.337390000000     0.964450000000     0.0252539  
H193     H      0.130770000000     0.519010000000     0.821870000000     0.0407789  
H194     H      0.200730000000     0.590220000000     0.700310000000     0.0226491  
H195     H      0.214690000000     0.492140000000     0.876920000000     0.0229329  
H196     H      0.229340000000     0.524530000000     0.814620000000     0.0407825  
H197     H      0.225740000000     0.555880000000     0.752950000000     0.0406988  
H198     H      0.126210000000     0.550370000000     0.761820000000     0.0406603  
H199     H      0.133230000000     0.514110000000     0.908530000000     0.0299654  
H200     H      0.222090000000     0.562130000000     0.665900000000     0.0318149  
H201     H      0.217000000000     0.560390000000     0.842940000000     0.047658   
H202     H      0.139890000000     0.516590000000     0.729340000000     0.0493492  
H203     H      0.232700000000     0.525720000000     0.904310000000     0.0306319  
H204     H      0.142730000000     0.586890000000     0.705590000000     0.0219701  
H205     H      0.141410000000     0.555350000000     0.850770000000     0.0505646  
H206     H      0.213330000000     0.520780000000     0.722630000000     0.0489039  
H207     H      0.122030000000     0.556370000000     0.675090000000     0.0311095  
H208     H      0.157010000000     0.487070000000     0.876070000000     0.0210699  
H209     H      0.120980000000     0.570020000000     0.259090000000     0.0408119  
H210     H      0.189200000000     0.481670000000     0.354160000000     0.0216026  
H211     H      0.201180000000     0.604710000000     0.218960000000     0.0212899  
H212     H      0.219480000000     0.562540000000     0.264750000000     0.0404256  
H213     H      0.215450000000     0.520830000000     0.311260000000     0.0404932  
H214     H      0.116680000000     0.529610000000     0.308780000000     0.0408034  
H215     H      0.123520000000     0.583020000000     0.171800000000     0.0312663  
H216     H      0.213480000000     0.502930000000     0.394600000000     0.0306903  
H217     H      0.206820000000     0.532890000000     0.223330000000     0.0501384  
H218     H      0.130540000000     0.559260000000     0.349080000000     0.0488169  
H219     H      0.223420000000     0.579490000000     0.181020000000     0.0302302  
H220     H      0.132330000000     0.487410000000     0.356010000000     0.0221271  
H221     H      0.130720000000     0.537770000000     0.220560000000     0.04859    
H222     H      0.205750000000     0.551820000000     0.352260000000     0.0497152  
H223     H      0.114000000000     0.515030000000     0.395080000000     0.0313032  
H224     H      0.144450000000     0.608140000000     0.211710000000     0.0224109  
H225     H      0.349680000000     0.195620000000     0.387320000000     0.0415136  
H226     H      0.430230000000     0.266130000000     0.403330000000     0.0239787  
H227     H      0.337980000000     0.192880000000     0.535020000000     0.0254879  
H228     H      0.362340000000     0.243980000000     0.522950000000     0.0416721  
H229     H      0.398650000000     0.269110000000     0.474290000000     0.0413259  
H230     H      0.394100000000     0.176880000000     0.406380000000     0.04158    
H231     H      0.298320000000     0.175640000000     0.416300000000     0.0303812  
H232     H      0.454860000000     0.272400000000     0.453950000000     0.031192   
H233     H      0.331420000000     0.257070000000     0.484680000000     0.0483953  
H234     H      0.416660000000     0.178610000000     0.458780000000     0.0513542  
H235     H      0.310700000000     0.223810000000     0.548790000000     0.0303766  
H236     H      0.429560000000     0.211340000000     0.364660000000     0.022272   
H237     H      0.323910000000     0.226500000000     0.402670000000     0.0511049  
H238     H      0.421100000000     0.238680000000     0.503200000000     0.0490266  
H239     H      0.451600000000     0.180100000000     0.391180000000     0.030138   
H240     H      0.330010000000     0.162980000000     0.452960000000     0.0226563  
H241     H      0.726540000000     0.213330000000     0.471590000000     0.0421348  
H242     H      0.647990000000     0.152710000000     0.493820000000     0.0261897  
H243     H      0.760410000000     0.191870000000     0.608830000000     0.02514    
H244     H      0.719790000000     0.153430000000     0.597220000000     0.0413922  
H245     H      0.672040000000     0.148220000000     0.570730000000     0.0413361  
H246     H      0.695110000000     0.241430000000     0.514030000000     0.0417273  
H247     H      0.784240000000     0.213720000000     0.481150000000     0.0318594  
H248     H      0.618300000000     0.154110000000     0.538480000000     0.0309288  
H249     H      0.737950000000     0.137440000000     0.545110000000     0.0486892  
H250     H      0.665280000000     0.236950000000     0.556610000000     0.0498459  
H251     H      0.777510000000     0.153430000000     0.602850000000     0.0311105  
H252     H      0.663630000000     0.211460000000     0.455500000000     0.0233224  
H253     H      0.742730000000     0.175010000000     0.470060000000     0.0504651  
H254     H      0.652600000000     0.182710000000     0.592700000000     0.0481357  
H255     H      0.642020000000     0.244070000000     0.478570000000     0.0321886  
H256     H      0.764790000000     0.230040000000     0.531430000000     0.0228745  
H257     H      0.317640000000     0.194220000000     0.922870000000     0.0413578  
H258     H      0.399860000000     0.264970000000     0.937190000000     0.0245853  
H259     H      0.299130000000     0.197530000000     0.068400000000     0.0254674  
H260     H      0.332590000000     0.242750000000     0.057330000000     0.0415977  
H261     H      0.370230000000     0.266640000000     0.009830000000     0.041365   
H262     H      0.362000000000     0.175300000000     0.939650000000     0.0414315  
H263     H      0.262390000000     0.185160000000     0.946080000000     0.0310507  
H264     H      0.425990000000     0.268890000000     0.986540000000     0.0310945  
H265     H      0.306120000000     0.260920000000     0.016050000000     0.0483387  
H266     H      0.386370000000     0.176760000000     0.990080000000     0.0512294  
H267     H      0.277070000000     0.233020000000     0.078060000000     0.030446   
H268     H      0.396140000000     0.210330000000     0.895700000000     0.0226971  
H269     H      0.297200000000     0.229790000000     0.932920000000     0.0504815  
H270     H      0.392550000000     0.235010000000     0.035770000000     0.0489058  
H271     H      0.418520000000     0.178280000000     0.919110000000     0.0308143  
H272     H      0.289490000000     0.167610000000     0.986320000000     0.0230537  
H273     H      0.660810000000     0.223480000000     0.071880000000     0.0414745  
H274     H      0.727240000000     0.118500000000     0.023690000000     0.0227701  
H275     H      0.631320000000     0.175310000000     0.949480000000     0.0228859  
H276     H      0.653240000000     0.132780000000     0.998850000000     0.0413717  
H277     H      0.695920000000     0.149420000000     0.968440000000     0.041653   
H278     H      0.700160000000     0.195550000000     0.106340000000     0.0415775  
H279     H      0.607410000000     0.237200000000     0.043270000000     0.0301308  
H280     H      0.751540000000     0.133910000000     0.977790000000     0.0310039  
H281     H      0.626920000000     0.141830000000     0.044930000000     0.0498635  
H282     H      0.723770000000     0.212310000000     0.059980000000     0.0482712  
H283     H      0.601150000000     0.149160000000     0.968760000000     0.031178   
H284     H      0.729900000000     0.147280000000     0.107910000000     0.0255996  
H285     H      0.631690000000     0.195760000000     0.091220000000     0.0481426  
H286     H      0.720920000000     0.182380000000     0.974520000000     0.0506103  
H287     H      0.756260000000     0.180140000000     0.112660000000     0.0304415  
H288     H      0.635380000000     0.231760000000     0.996730000000     0.0259004  
H289     H      0.499770000000     0.170310000000     0.686290000000     0.040573   
H290     H      0.570460000000     0.240970000000     0.812910000000     0.0230261  
H291     H      0.484980000000     0.255220000000     0.624300000000     0.0219505  
H292     H      0.517070000000     0.268810000000     0.686940000000     0.0405549  
H293     H      0.541710000000     0.264660000000     0.753280000000     0.0407375  
H294     H      0.527970000000     0.164780000000     0.749420000000     0.04058    
H295     H      0.499160000000     0.170040000000     0.599110000000     0.0314075  
H296     H      0.540650000000     0.263360000000     0.841940000000     0.0316259  
H297     H      0.551430000000     0.250460000000     0.662750000000     0.0485272  
H298     H      0.495250000000     0.182750000000     0.779000000000     0.0495334  
H299     H      0.520550000000     0.269030000000     0.598430000000     0.031461   
H300     H      0.564630000000     0.181880000000     0.805780000000     0.0223371  
H301     H      0.537800000000     0.176130000000     0.660350000000     0.0487781  
H302     H      0.504340000000     0.255950000000     0.779080000000     0.0482023  
H303     H      0.533080000000     0.162390000000     0.835190000000     0.0315257  
H304     H      0.473250000000     0.197580000000     0.626730000000     0.0223406  
H305     H      0.509690000000     0.154760000000     0.199690000000     0.0406638  
H306     H      0.597300000000     0.229210000000     0.285740000000     0.0217637  
H307     H      0.469700000000     0.232870000000     0.160740000000     0.0217055  
H308     H      0.513500000000     0.254880000000     0.198950000000     0.0407648  
H309     H      0.557450000000     0.252930000000     0.241310000000     0.0405716  
H310     H      0.551190000000     0.153670000000     0.246620000000     0.0406006  
H311     H      0.492610000000     0.154680000000     0.113960000000     0.0312867  
H312     H      0.576010000000     0.254460000000     0.324990000000     0.0309168  
H313     H      0.540620000000     0.241430000000     0.154650000000     0.050184   
H314     H      0.521940000000     0.167490000000     0.287330000000     0.0489446  
H315     H      0.491080000000     0.255720000000     0.118540000000     0.0306448  
H316     H      0.593030000000     0.172250000000     0.291170000000     0.0220388  
H317     H      0.539180000000     0.165310000000     0.157340000000     0.0481804  
H318     H      0.527540000000     0.244710000000     0.284370000000     0.0498454  
H319     H      0.567160000000     0.153940000000     0.332570000000     0.0314074  
H320     H      0.468560000000     0.175240000000     0.155630000000     0.0225292  
H321     H      0.850790000000     0.349100000000     0.642040000000     0.0416139  
H322     H      0.876940000000     0.293900000000     0.515800000000     0.0262659  
H323     H      0.928700000000     0.404220000000     0.631680000000     0.0241812  
H324     H      0.937380000000     0.368610000000     0.566610000000     0.0411828  
H325     H      0.924420000000     0.324130000000     0.528280000000     0.0414702  
H326     H      0.877640000000     0.309580000000     0.664370000000     0.0412831  
H327     H      0.840640000000     0.407140000000     0.646000000000     0.0314035  
H328     H      0.910690000000     0.269670000000     0.505830000000     0.0304225  
H329     H      0.902430000000     0.381320000000     0.536350000000     0.049143   
H330     H      0.911180000000     0.287620000000     0.649320000000     0.0492012  
H331     H      0.928340000000     0.425470000000     0.576830000000     0.0316393  
H332     H      0.847020000000     0.283150000000     0.602270000000     0.0232046  
H333     H      0.846220000000     0.366980000000     0.585900000000     0.0504653  
H334     H      0.939550000000     0.295980000000     0.569650000000     0.0481751  
H335     H      0.865460000000     0.254390000000     0.639060000000     0.0316784  
H336     H      0.875870000000     0.394910000000     0.674660000000     0.0228973  
H337     H      0.856710000000     0.662470000000     0.550730000000     0.0426409  
H338     H      0.815160000000     0.716810000000     0.451390000000     0.0273571  
H339     H      0.779570000000     0.598690000000     0.554520000000     0.0265873  
H340     H      0.770880000000     0.629270000000     0.483450000000     0.0415751  
H341     H      0.772190000000     0.679730000000     0.459610000000     0.041511   
H342     H      0.819860000000     0.684840000000     0.595530000000     0.0421553  
H343     H      0.869670000000     0.606830000000     0.571260000000     0.0313099  
H344     H      0.779030000000     0.738200000000     0.450980000000     0.0294976  
H345     H      0.807840000000     0.617850000000     0.458460000000     0.0486473  
H346     H      0.784020000000     0.704940000000     0.586550000000     0.0492523  
H347     H      0.786070000000     0.573830000000     0.504150000000     0.0287758  
H348     H      0.846950000000     0.720800000000     0.541060000000     0.0228197  
H349     H      0.859240000000     0.637590000000     0.500600000000     0.0504708  
H350     H      0.755260000000     0.701580000000     0.507460000000     0.0479449  
H351     H      0.825960000000     0.743120000000     0.584050000000     0.0318712  
H352     H      0.834190000000     0.619840000000     0.598170000000     0.022644   
H353     H      0.913440000000     0.344960000000     0.078940000000     0.0414294  
H354     H      0.815350000000     0.274750000000     0.024870000000     0.0227521  
H355     H      0.858150000000     0.384490000000     0.972820000000     0.0228527  
H356     H      0.824200000000     0.343280000000     0.003790000000     0.0416817  
H357     H      0.847580000000     0.305540000000     0.968780000000     0.0414632  
H358     H      0.894060000000     0.299070000000     0.106500000000     0.0413768  
H359     H      0.912860000000     0.403390000000     0.075690000000     0.0309814  
H360     H      0.829790000000     0.250020000000     0.978580000000     0.0315213  
H361     H      0.824540000000     0.360220000000     0.060870000000     0.0507591  
H362     H      0.908420000000     0.275670000000     0.058250000000     0.0484239  
H363     H      0.825130000000     0.401840000000     0.001530000000     0.0310254  
H364     H      0.844970000000     0.270700000000     0.109340000000     0.0252266  
H365     H      0.880370000000     0.361490000000     0.109740000000     0.048517   
H366     H      0.879110000000     0.279220000000     0.976490000000     0.0501778  
H367     H      0.876990000000     0.243400000000     0.112450000000     0.0310479  
H368     H      0.912170000000     0.384920000000     0.018560000000     0.0250215  
H369     H      0.870720000000     0.687290000000     0.136020000000     0.0414894  
H370     H      0.799930000000     0.608550000000     0.115070000000     0.0243382  
H371     H      0.874470000000     0.698240000000     0.985260000000     0.0255786  
H372     H      0.822610000000     0.677760000000     0.000000000000     0.0411771  
H373     H      0.800100000000     0.638740000000     0.042820000000     0.0410036  
H374     H      0.890690000000     0.643630000000     0.114120000000     0.0416768  
H375     H      0.897820000000     0.734570000000     0.105120000000     0.0311704  
H376     H      0.796010000000     0.582310000000     0.065590000000     0.0311461  
H377     H      0.812710000000     0.709840000000     0.038530000000     0.0475618  
H378     H      0.888080000000     0.618670000000     0.064250000000     0.0515568  
H379     H      0.846400000000     0.728930000000     0.974640000000     0.030387   
H380     H      0.853260000000     0.611360000000     0.157940000000     0.0224859  
H381     H      0.843730000000     0.716240000000     0.117620000000     0.0509879  
H382     H      0.830910000000     0.615250000000     0.017270000000     0.0483217  
H383     H      0.884750000000     0.587380000000     0.136750000000     0.0304601  
H384     H      0.905620000000     0.701240000000     0.068270000000     0.0226303  
H385     H      0.813250000000     0.551700000000     0.857220000000     0.0406476  
H386     H      0.882130000000     0.573990000000     0.723800000000     0.0231596  
H387     H      0.897010000000     0.497130000000     0.896020000000     0.0251712  
H388     H      0.915480000000     0.545080000000     0.859910000000     0.0407071  
H389     H      0.911490000000     0.552920000000     0.786440000000     0.0410212  
H390     H      0.814860000000     0.519550000000     0.801250000000     0.0416948  
H391     H      0.811330000000     0.521420000000     0.931430000000     0.0318674  
H392     H      0.907230000000     0.544270000000     0.699970000000     0.0321499  
H393     H      0.893720000000     0.569450000000     0.898990000000     0.0472102  
H394     H      0.842670000000     0.494240000000     0.775370000000     0.0509982  
H395     H      0.911530000000     0.522790000000     0.940970000000     0.0325125  
H396     H      0.822540000000     0.558840000000     0.737350000000     0.0233265  
H397     H      0.836440000000     0.569490000000     0.900770000000     0.0484391  
H398     H      0.903720000000     0.512510000000     0.770970000000     0.0488339  
H399     H      0.809780000000     0.521120000000     0.716240000000     0.0319965  
H400     H      0.830410000000     0.497840000000     0.887520000000     0.0249433  
H401     H      0.797610000000     0.448240000000     0.362630000000     0.0410771  
H402     H      0.878330000000     0.497070000000     0.251180000000     0.0251831  
H403     H      0.889070000000     0.450110000000     0.408850000000     0.0232328  
H404     H      0.891470000000     0.487830000000     0.341500000000     0.0419095  
H405     H      0.896630000000     0.448820000000     0.295620000000     0.0411447  
H406     H      0.794470000000     0.449070000000     0.288280000000     0.0409369  
H407     H      0.803210000000     0.458310000000     0.448160000000     0.0324836  
H408     H      0.898280000000     0.469420000000     0.214060000000     0.0320528  
H409     H      0.861970000000     0.511050000000     0.367370000000     0.0508796  
H410     H      0.818080000000     0.421780000000     0.256590000000     0.0470892  
H411     H      0.897950000000     0.489600000000     0.427030000000     0.0319336  
H412     H      0.810050000000     0.492910000000     0.240490000000     0.0257212  
H413     H      0.804120000000     0.489160000000     0.375770000000     0.0484932  
H414     H      0.875380000000     0.424810000000     0.256520000000     0.0487896  
H415     H      0.799050000000     0.461320000000     0.202260000000     0.0322707  
H416     H      0.829930000000     0.429920000000     0.424730000000     0.0242711  
H417     H      0.305680000000     0.898370000000     0.457830000000     0.0418683  
H418     H      0.381190000000     0.946120000000     0.527670000000     0.0262322  
H419     H      0.259550000000     0.892030000000     0.592720000000     0.0268169  
H420     H      0.289710000000     0.940540000000     0.596410000000     0.0413664  
H421     H      0.340640000000     0.948710000000     0.586930000000     0.0416848  
H422     H      0.328540000000     0.862820000000     0.503300000000     0.0424592  
H423     H      0.249310000000     0.882770000000     0.455250000000     0.0317696  
H424     H      0.398290000000     0.940190000000     0.584910000000     0.0294452  
H425     H      0.271010000000     0.956320000000     0.544920000000     0.0482626  
H426     H      0.344910000000     0.859910000000     0.560570000000     0.0507891  
H427     H      0.233470000000     0.925100000000     0.590490000000     0.0295788  
H428     H      0.373940000000     0.892080000000     0.474470000000     0.022456   
H429     H      0.279780000000     0.930640000000     0.464600000000     0.0493988  
H430     H      0.351950000000     0.911650000000     0.612830000000     0.048819   
H431     H      0.386360000000     0.856300000000     0.502060000000     0.0309132  
H432     H      0.269730000000     0.863720000000     0.502230000000     0.0227466  
H433     H      0.665510000000     0.827630000000     0.454340000000     0.0416646  
H434     H      0.603190000000     0.869280000000     0.610580000000     0.0226942  
H435     H      0.714030000000     0.896760000000     0.530820000000     0.0226865  
H436     H      0.679630000000     0.874010000000     0.590830000000     0.0415418  
H437     H      0.640920000000     0.900560000000     0.565920000000     0.041462   
H438     H      0.622340000000     0.810900000000     0.494660000000     0.0414851  
H439     H      0.722540000000     0.830080000000     0.440120000000     0.0310592  
H440     H      0.584580000000     0.903660000000     0.587110000000     0.0308792  
H441     H      0.695920000000     0.836130000000     0.582450000000     0.0507155  
H442     H      0.604400000000     0.845650000000     0.469970000000     0.0488964  
H443     H      0.736610000000     0.876000000000     0.573940000000     0.0310003  
H444     H      0.592690000000     0.814710000000     0.566920000000     0.024902   
H445     H      0.687260000000     0.806320000000     0.498520000000     0.048497   
H446     H      0.616340000000     0.901100000000     0.515750000000     0.0506439  
H447     H      0.566670000000     0.815400000000     0.517130000000     0.0310987  
H448     H      0.704810000000     0.868160000000     0.447720000000     0.0254108  
H449     H      0.393800000000     0.847670000000     0.058050000000     0.0416301  
H450     H      0.323300000000     0.949670000000     0.992870000000     0.0228772  
H451     H      0.444500000000     0.892330000000     0.947140000000     0.0228793  
H452     H      0.409550000000     0.932410000000     0.974010000000     0.0410812  
H453     H      0.363420000000     0.922870000000     0.950790000000     0.0411294  
H454     H      0.357050000000     0.882820000000     0.091810000000     0.0413086  
H455     H      0.449170000000     0.834470000000     0.050860000000     0.0309532  
H456     H      0.304330000000     0.926250000000     0.948780000000     0.0315376  
H457     H      0.425560000000     0.932590000000     0.031750000000     0.0493278  
H458     H      0.336110000000     0.860550000000     0.047620000000     0.0498532  
H459     H      0.467270000000     0.921260000000     0.977460000000     0.0307967  
H460     H      0.325260000000     0.929460000000     0.077770000000     0.0234309  
H461     H      0.417900000000     0.877480000000     0.085210000000     0.049143   
H462     H      0.343700000000     0.886090000000     0.952970000000     0.0497996  
H463     H      0.301800000000     0.896200000000     0.094020000000     0.0322134  
H464     H      0.430740000000     0.839620000000     0.994310000000     0.0250068  
H465     H      0.734860000000     0.814970000000     0.982340000000     0.0417191  
H466     H      0.664390000000     0.876040000000     0.118720000000     0.0228133  
H467     H      0.806310000000     0.873550000000     0.088210000000     0.027664   
H468     H      0.760930000000     0.891910000000     0.042400000000     0.0479927  
H469     H      0.704470000000     0.900020000000     0.072270000000     0.0410474  
H470     H      0.693310000000     0.801570000000     0.031660000000     0.0412341  
H471     H      0.791180000000     0.811380000000     0.972160000000     0.0292314  
H472     H      0.646300000000     0.904130000000     0.080360000000     0.0316727  
H473     H      0.748640000000     0.878300000000     0.099930000000     0.0420076  
H474     H      0.674670000000     0.829140000000     0.992300000000     0.0491599  
H475     H      0.787610000000     0.836900000000     0.101420000000     0.0275994  
H476     H      0.660760000000     0.816690000000     0.097280000000     0.0239424  
H477     H      0.752870000000     0.800350000000     0.035690000000     0.0484311  
H478     H      0.683790000000     0.894110000000     0.018470000000     0.0495203  
H479     H      0.637250000000     0.805410000000     0.047560000000     0.0318763  
H480     H      0.778140000000     0.851430000000     0.967920000000     0.0269129  
H481     H      0.535830000000     0.812360000000     0.815550000000     0.0407695  
H482     H      0.461610000000     0.902350000000     0.739850000000     0.0222274  
H483     H      0.592000000000     0.881010000000     0.851460000000     0.0222142  
H484     H      0.553150000000     0.910540000000     0.813140000000     0.0404324  
H485     H      0.509430000000     0.918210000000     0.773630000000     0.0404733  
H486     H      0.494550000000     0.818880000000     0.770560000000     0.0408716  
H487     H      0.554590000000     0.809220000000     0.900140000000     0.03143    
H488     H      0.483650000000     0.923460000000     0.696450000000     0.0312414  
H489     H      0.524500000000     0.904290000000     0.858850000000     0.0490358  
H490     H      0.523090000000     0.827810000000     0.725980000000     0.0483131  
H491     H      0.575940000000     0.907960000000     0.893660000000     0.031214   
H492     H      0.453840000000     0.844590000000     0.732260000000     0.02308    
H493     H      0.510060000000     0.829040000000     0.859050000000     0.0488557  
H494     H      0.532620000000     0.902240000000     0.726250000000     0.0496635  
H495     H      0.473840000000     0.822890000000     0.687210000000     0.0316776  
H496     H      0.581170000000     0.824300000000     0.856910000000     0.0222122  
H497     H      0.533970000000     0.928100000000     0.261390000000     0.0407278  
H498     H      0.449750000000     0.867500000000     0.366890000000     0.0222102  
H499     H      0.561520000000     0.842210000000     0.221800000000     0.0235083  
H500     H      0.517100000000     0.828290000000     0.265900000000     0.0406613  
H501     H      0.482550000000     0.836250000000     0.319630000000     0.0404796  
H502     H      0.504270000000     0.933980000000     0.321390000000     0.0406598  
H503     H      0.545470000000     0.924150000000     0.175200000000     0.0319578  
H504     H      0.468440000000     0.838370000000     0.402770000000     0.0315857  
H505     H      0.490070000000     0.847070000000     0.226100000000     0.048634   
H506     H      0.534320000000     0.914290000000     0.354460000000     0.0475683  
H507     H      0.533490000000     0.823710000000     0.183900000000     0.0318603  
H508     H      0.465360000000     0.925100000000     0.375720000000     0.0230422  
H509     H      0.500930000000     0.918450000000     0.225100000000     0.0482002  
H510     H      0.516280000000     0.841590000000     0.356990000000     0.0493556  
H511     H      0.498850000000     0.934770000000     0.410610000000     0.0314786  
H512     H      0.570130000000     0.902330000000     0.214280000000     0.0231942  
N1       N      0.126610000000     0.966020000000     0.506000000000    -0.189697   
N2       N      0.213220000000     0.107120000000     0.507050000000    -0.18977    
N3       N      0.180890000000     0.964020000000     0.028930000000    -0.188661   
N4       N      0.171160000000     0.124060000000     0.037640000000    -0.188328   
N5       N      0.964110000000     0.158500000000     0.534110000000    -0.188654   
N6       N      0.121810000000     0.199120000000     0.521060000000    -0.188843   
N7       N      0.938430000000     0.148100000000     0.033130000000    -0.188444   
N8       N      0.086440000000     0.223710000000     0.043440000000    -0.188783   
N9       N      0.063750000000     0.852630000000     0.500880000000    -0.188728   
N10      N      0.909820000000     0.812870000000     0.495860000000    -0.189262   
N11      N      0.860390000000     0.082180000000     0.508480000000    -0.188014   
N12      N      0.840400000000     0.923270000000     0.489180000000    -0.188153   
N13      N      0.129230000000     0.848060000000     0.996400000000    -0.188903   
N14      N      0.979250000000     0.800680000000     0.002710000000    -0.189395   
N15      N      0.911700000000     0.911710000000     0.999140000000    -0.189519   
N16      N      0.841410000000     0.060910000000     0.031610000000    -0.189203   
N17      N      0.162730000000     0.623580000000     0.506110000000    -0.189911   
N18      N      0.175560000000     0.789380000000     0.520750000000    -0.189607   
N19      N      0.213570000000     0.290570000000     0.498690000000    -0.189822   
N20      N      0.172470000000     0.444090000000     0.561330000000    -0.189484   
N21      N      0.198640000000     0.639230000000     0.011000000000    -0.188936   
N22      N      0.242590000000     0.794080000000     0.982310000000    -0.189406   
N23      N      0.159780000000     0.464910000000     0.073490000000    -0.189631   
N24      N      0.184370000000     0.307070000000     0.022950000000    -0.189431   
N25      N      0.171990000000     0.556980000000     0.666040000000    -0.189345   
N26      N      0.182830000000     0.522700000000     0.910160000000    -0.189855   
N27      N      0.164070000000     0.511780000000     0.399620000000    -0.189838   
N28      N      0.173530000000     0.578220000000     0.171810000000    -0.189817   
N29      N      0.455970000000     0.225780000000     0.423640000000    -0.189821   
N30      N      0.302180000000     0.198370000000     0.484230000000    -0.189648   
N31      N      0.627860000000     0.197850000000     0.502780000000    -0.188777   
N32      N      0.784050000000     0.185000000000     0.544130000000    -0.189028   
N33      N      0.425170000000     0.223430000000     0.952560000000    -0.18864    
N34      N      0.267000000000     0.207850000000     0.013910000000    -0.188523   
N35      N      0.756540000000     0.155520000000     0.046350000000    -0.188613   
N36      N      0.602180000000     0.195030000000     0.001900000000    -0.188528   
N37      N      0.535200000000     0.212950000000     0.843150000000    -0.18875    
N38      N      0.512240000000     0.219010000000     0.594600000000    -0.188919   
N39      N      0.568430000000     0.204650000000     0.333620000000    -0.189525   
N40      N      0.494440000000     0.205300000000     0.111240000000    -0.189591   
N41      N      0.884690000000     0.259840000000     0.569100000000    -0.188642   
N42      N      0.883670000000     0.419230000000     0.610860000000    -0.188851   
N43      N      0.806920000000     0.743340000000     0.513430000000    -0.18838    
N44      N      0.827040000000     0.587520000000     0.542510000000    -0.188773   
N45      N      0.851350000000     0.244050000000     0.046980000000    -0.189033   
N46      N      0.869170000000     0.405590000000     0.038170000000    -0.18933    
N47      N      0.840640000000     0.581970000000     0.100920000000    -0.189558   
N48      N      0.874260000000     0.733830000000     0.037490000000    -0.189236   
N49      N      0.858100000000     0.532920000000     0.702980000000    -0.189374   
N50      N      0.861430000000     0.516610000000     0.938720000000    -0.189011   
N51      N      0.848230000000     0.472080000000     0.204970000000    -0.188568   
N52      N      0.851430000000     0.472980000000     0.443070000000    -0.188932   
N53      N      0.395540000000     0.899220000000     0.540580000000    -0.189248   
N54      N      0.238960000000     0.899370000000     0.525690000000    -0.188915   
N55      N      0.572790000000     0.859470000000     0.553820000000    -0.189347   
N56      N      0.732480000000     0.853800000000     0.505650000000    -0.189261   
N57      N      0.299940000000     0.910060000000     0.020520000000    -0.189158   
N58      N      0.461140000000     0.876830000000     0.013120000000    -0.189188   
N59      N      0.638740000000     0.855150000000     0.063450000000    -0.189073   
N60      N      0.802820000000     0.841200000000     0.030780000000    -0.190122   
N61      N      0.480250000000     0.873190000000     0.686490000000    -0.188859   
N62      N      0.563080000000     0.859210000000     0.902160000000    -0.188945   
N63      N      0.484390000000     0.886270000000     0.411700000000    -0.188448   
N64      N      0.539800000000     0.873720000000     0.174570000000    -0.188251   
O1       O      0.545740000000     0.896370000000     0.101410000000    -0.555349   
O2       O      0.561370000000     0.888640000000     0.969990000000    -0.55717    
O3       O      0.510240000000     0.897680000000     0.022050000000    -0.555112   
O4       O      0.596630000000     0.887210000000     0.048930000000    -0.555569   
O5       O      0.590010000000     0.835110000000     0.049420000000    -0.562677   
O6       O      0.503090000000     0.846040000000     0.031870000000    -0.562749   
O7       O      0.552050000000     0.837040000000     0.974190000000    -0.558265   
O8       O      0.541140000000     0.844190000000     0.106740000000    -0.55953    
O9       O      0.487530000000     0.901890000000     0.618990000000    -0.559199   
O10      O      0.491310000000     0.908170000000     0.485360000000    -0.554423   
O11      O      0.446270000000     0.914650000000     0.550980000000    -0.557771   
O12      O      0.532790000000     0.895330000000     0.554970000000    -0.557774   
O13      O      0.521760000000     0.844240000000     0.546930000000    -0.56153    
O14      O      0.435430000000     0.863470000000     0.543210000000    -0.561177   
O15      O      0.480150000000     0.857030000000     0.479290000000    -0.561434   
O16      O      0.476890000000     0.850640000000     0.612820000000    -0.55691    
O17      O      0.883910000000     0.507660000000     0.011130000000    -0.559672   
O18      O      0.877170000000     0.486140000000     0.140460000000    -0.563487   
O19      O      0.887390000000     0.453890000000     0.061260000000    -0.560204   
O20      O      0.873540000000     0.539840000000     0.091670000000    -0.559513   
O21      O      0.822310000000     0.532990000000     0.081810000000    -0.561286   
O22      O      0.836200000000     0.447260000000     0.050620000000    -0.56006    
O23      O      0.825910000000     0.479110000000     0.131840000000    -0.558218   
O24      O      0.832570000000     0.501230000000     0.002610000000    -0.563484   
O25      O      0.877110000000     0.497710000000     0.503810000000    -0.560624   
O26      O      0.881920000000     0.522640000000     0.632130000000    -0.560963   
O27      O      0.893270000000     0.469140000000     0.584000000000    -0.562456   
O28      O      0.865920000000     0.551330000000     0.552640000000    -0.561841   
O29      O      0.816320000000     0.535540000000     0.557470000000    -0.554406   
O30      O      0.844170000000     0.455070000000     0.599420000000    -0.554711   
O31      O      0.831700000000     0.510340000000     0.641250000000    -0.560177   
O32      O      0.828660000000     0.480230000000     0.515490000000    -0.559608   
O33      O      0.519220000000     0.185490000000     0.908370000000    -0.560721   
O34      O      0.501160000000     0.181190000000     0.039320000000    -0.557052   
O35      O      0.467130000000     0.190250000000     0.960270000000    -0.556914   
O36      O      0.553090000000     0.176490000000     0.985830000000    -0.558331   
O37      O      0.560230000000     0.228250000000     0.994340000000    -0.556458   
O38      O      0.474410000000     0.242080000000     0.967440000000    -0.557645   
O39      O      0.507840000000     0.233150000000     0.045260000000    -0.561398   
O40      O      0.526920000000     0.237260000000     0.914650000000    -0.556373   
O41      O      0.522630000000     0.189480000000     0.528600000000    -0.558802   
O42      O      0.551820000000     0.182130000000     0.402700000000    -0.558819   
O43      O      0.578480000000     0.179250000000     0.488400000000    -0.557427   
O44      O      0.496170000000     0.192450000000     0.442500000000    -0.557471   
O45      O      0.503800000000     0.244400000000     0.445890000000    -0.562567   
O46      O      0.587910000000     0.230710000000     0.481390000000    -0.562119   
O47      O      0.557630000000     0.234290000000     0.399300000000    -0.559782   
O48      O      0.533840000000     0.240760000000     0.527990000000    -0.55897    
O49      O      0.150670000000     0.569260000000     0.099780000000    -0.558461   
O50      O      0.155820000000     0.543770000000     0.971930000000    -0.562464   
O51      O      0.143930000000     0.514500000000     0.052330000000    -0.557314   
O52      O      0.163060000000     0.598960000000     0.017640000000    -0.554469   
O53      O      0.213670000000     0.589080000000     0.029010000000    -0.563968   
O54      O      0.194720000000     0.504960000000     0.062530000000    -0.562459   
O55      O      0.206810000000     0.534710000000     0.980470000000    -0.557499   
O56      O      0.201440000000     0.559390000000     0.109040000000    -0.562041   
O57      O      0.139850000000     0.523700000000     0.469580000000    -0.559155   
O58      O      0.144070000000     0.541820000000     0.600680000000    -0.558873   
O59      O      0.139480000000     0.576330000000     0.522460000000    -0.562499   
O60      O      0.144160000000     0.488870000000     0.547690000000    -0.561612   
O61      O      0.196160000000     0.491710000000     0.548230000000    -0.558388   
O62      O      0.191240000000     0.578130000000     0.513930000000    -0.557255   
O63      O      0.195800000000     0.546380000000     0.595430000000    -0.560974   
O64      O      0.191860000000     0.523290000000     0.466460000000    -0.561121   
O65      O      0.937780000000     0.815620000000     0.048790000000    -0.560757   
O66      O      0.851910000000     0.836390000000     0.062700000000    -0.556828   
O67      O      0.886040000000     0.782870000000     0.065460000000    -0.56463    
O68      O      0.904630000000     0.868940000000     0.046750000000    -0.565606   
O69      O      0.897010000000     0.863460000000     0.969350000000    -0.554709   
O70      O      0.878530000000     0.776520000000     0.988140000000    -0.555309   
O71      O      0.845120000000     0.829340000000     0.985330000000    -0.5639     
O72      O      0.930780000000     0.809930000000     0.971330000000    -0.561014   
O73      O      0.865880000000     0.826650000000     0.537030000000    -0.564141   
O74      O      0.779460000000     0.845410000000     0.542200000000    -0.562001   
O75      O      0.814430000000     0.792180000000     0.545720000000    -0.56359    
O76      O      0.831500000000     0.879210000000     0.533700000000    -0.565726   
O77      O      0.828920000000     0.875180000000     0.455400000000    -0.551875   
O78      O      0.810240000000     0.787760000000     0.467540000000    -0.553758   
O79      O      0.776300000000     0.840520000000     0.463970000000    -0.557678   
O80      O      0.862890000000     0.821760000000     0.458860000000    -0.556173   
O81      O      0.845310000000     0.106470000000     0.075010000000    -0.55701    
O82      O      0.852630000000     0.195520000000     0.082210000000    -0.558364   
O83      O      0.804560000000     0.154920000000     0.082180000000    -0.556091   
O84      O      0.892820000000     0.147620000000     0.075420000000    -0.558516   
O85      O      0.890470000000     0.153180000000     0.997300000000    -0.555781   
O86      O      0.801830000000     0.154050000000     0.003580000000    -0.558129   
O87      O      0.846480000000     0.198490000000     0.004190000000    -0.559172   
O88      O      0.844940000000     0.109340000000     0.996460000000    -0.560615   
O89      O      0.869250000000     0.121750000000     0.561940000000    -0.55996    
O90      O      0.877980000000     0.208420000000     0.591940000000    -0.557782   
O91      O      0.829810000000     0.169290000000     0.578580000000    -0.559981   
O92      O      0.917950000000     0.160380000000     0.575350000000    -0.55799    
O93      O      0.917460000000     0.169300000000     0.497870000000    -0.559847   
O94      O      0.830350000000     0.184920000000     0.503470000000    -0.5584     
O95      O      0.881960000000     0.219700000000     0.515310000000    -0.558451   
O96      O      0.866000000000     0.133910000000     0.485620000000    -0.556302   
O97      O      0.177300000000     0.172470000000     0.072280000000    -0.561356   
O98      O      0.183040000000     0.261270000000     0.065050000000    -0.562982   
O99      O      0.135660000000     0.219790000000     0.075720000000    -0.554106   
O100     O      0.223900000000     0.214310000000     0.060950000000    -0.556112   
O101     O      0.217580000000     0.209940000000     0.983080000000    -0.557858   
O102     O      0.130050000000     0.218760000000     0.997520000000    -0.560488   
O103     O      0.177190000000     0.259160000000     0.986880000000    -0.55512    
O104     O      0.169920000000     0.169940000000     0.994530000000    -0.556856   
O105     O      0.209190000000     0.153410000000     0.466110000000    -0.562014   
O106     O      0.207880000000     0.242760000000     0.462130000000    -0.559362   
O107     O      0.252430000000     0.197700000000     0.454950000000    -0.561355   
O108     O      0.164840000000     0.197750000000     0.473120000000    -0.563042   
O109     O      0.171730000000     0.200460000000     0.550960000000    -0.557262   
O110     O      0.259610000000     0.199690000000     0.532900000000    -0.559157   
O111     O      0.216700000000     0.244390000000     0.539710000000    -0.561118   
O112     O      0.215300000000     0.155120000000     0.544200000000    -0.55906    
O113     O      0.173060000000     0.870110000000     0.963020000000    -0.556101   
O114     O      0.256830000000     0.899540000000     0.974320000000    -0.552839   
O115     O      0.229150000000     0.843290000000     0.956690000000    -0.561753   
O116     O      0.199940000000     0.925940000000     0.979580000000    -0.562962   
O117     O      0.198040000000     0.916050000000     0.056740000000    -0.556787   
O118     O      0.229800000000     0.833620000000     0.034040000000    -0.557657   
O119     O      0.255060000000     0.889910000000     0.051580000000    -0.567512   
O120     O      0.172760000000     0.859330000000     0.039970000000    -0.566104   
O121     O      0.111100000000     0.865270000000     0.468030000000    -0.560689   
O122     O      0.196230000000     0.888080000000     0.480320000000    -0.562257   
O123     O      0.165410000000     0.833880000000     0.477710000000    -0.5608     
O124     O      0.142120000000     0.920000000000     0.470660000000    -0.560038   
O125     O      0.136310000000     0.921330000000     0.548820000000    -0.561169   
O126     O      0.160140000000     0.835430000000     0.555970000000    -0.560257   
O127     O      0.190720000000     0.890990000000     0.558480000000    -0.558435   
O128     O      0.106030000000     0.866000000000     0.546290000000    -0.560701   
V1       V      0.553720000000     0.894590000000     0.035400000000     1.3763     
V2       V      0.546280000000     0.838530000000     0.040720000000     1.39698    
V3       V      0.489980000000     0.907060000000     0.552710000000     1.38176    
V4       V      0.478150000000     0.851800000000     0.545520000000     1.39494    
V5       V      0.882550000000     0.497180000000     0.076400000000     1.39311    
V6       V      0.827200000000     0.489780000000     0.066540000000     1.39337    
V7       V      0.881530000000     0.510770000000     0.567590000000     1.39809    
V8       V      0.828200000000     0.494670000000     0.578790000000     1.3808     
V9       V      0.509790000000     0.181300000000     0.973310000000     1.38706    
V10      V      0.517660000000     0.237260000000     0.980500000000     1.38571    
V11      V      0.536930000000     0.183720000000     0.465720000000     1.38408    
V12      V      0.546180000000     0.239620000000     0.463600000000     1.39534    
V13      V      0.151340000000     0.557140000000     0.035110000000     1.38425    
V14      V      0.206180000000     0.546590000000     0.045440000000     1.39722    
V15      V      0.139800000000     0.532560000000     0.535310000000     1.39292    
V16      V      0.195860000000     0.534960000000     0.530790000000     1.38873    
V17      V      0.895270000000     0.826240000000     0.059010000000     1.39867    
V18      V      0.887620000000     0.819650000000     0.975400000000     1.38543    
V19      V      0.822820000000     0.836000000000     0.542730000000     1.40857    
V20      V      0.819460000000     0.831200000000     0.458250000000     1.37133    
V21      V      0.848880000000     0.150970000000     0.081870000000     1.38398    
V22      V      0.845930000000     0.153950000000     0.997220000000     1.38767    
V23      V      0.873820000000     0.164500000000     0.580050000000     1.38849    
V24      V      0.873920000000     0.177370000000     0.497440000000     1.3859     
V25      V      0.180130000000     0.217040000000     0.071630000000     1.38793    
V26      V      0.173500000000     0.214370000000     0.987370000000     1.38487    
V27      V      0.208300000000     0.197910000000     0.460980000000     1.39605    
V28      V      0.216040000000     0.199930000000     0.545090000000     1.38731    
V29      V      0.214910000000     0.885150000000     0.965310000000     1.38434    
V30      V      0.213890000000     0.874380000000     0.048650000000     1.39825    
V31      V      0.153890000000     0.876810000000     0.471050000000     1.39392    
V32      V      0.148110000000     0.878510000000     0.555520000000     1.39078    


