data_structure

_audit_creation_method RASPA-1.0
_audit_creation_date 2023-5-22
_audit_author_name 'Poobodin Mano'

_cell_length_a    28.2208
_cell_length_b    27.5911
_cell_length_c    56.6005
_cell_angle_alpha 90
_cell_angle_beta  90
_cell_angle_gamma 90
_cell_volume      44071.6

_symmetry_cell_setting          triclinic
_symmetry_space_group_name_Hall 'P 1'
_symmetry_space_group_name_H-M  'P 1'
_symmetry_Int_Tables_number     1

_symmetry_equiv_pos_as_xyz 'x,y,z'

loop_
_atom_site_label
_atom_site_type_symbol
_atom_site_fract_x
_atom_site_fract_y
_atom_site_fract_z
_atom_site_charge
C1       C      0.040350000000     0.945270000000     0.131260000000     0.475052   
C2       C      0.034590000000     0.123710000000     0.110000000000     0.47649    
C3       C      0.038910000000     0.056460000000     0.163750000000     0.475579   
C4       C      0.035710000000     0.013270000000     0.076740000000     0.475224   
C5       C      0.047370000000     0.476090000000     0.106300000000     0.473746   
C6       C      0.040550000000     0.551910000000     0.187840000000     0.473791   
C7       C      0.043110000000     0.598820000000     0.128160000000     0.475607   
C8       C      0.044920000000     0.431270000000     0.164920000000     0.476921   
C9       C      0.537390000000     0.001950000000     0.121780000000     0.477072   
C10      C      0.553460000000     0.183080000000     0.134370000000     0.475208   
C11      C      0.550740000000     0.105100000000     0.084250000000     0.475793   
C12      C      0.539000000000     0.079010000000     0.172770000000     0.473548   
C13      C      0.560260000000     0.605300000000     0.144370000000     0.476565   
C14      C      0.566960000000     0.604480000000     0.233790000000     0.476536   
C15      C      0.569230000000     0.512880000000     0.189630000000     0.475628   
C16      C      0.557150000000     0.696190000000     0.189470000000     0.476688   
C17      C      0.024020000000     0.907290000000     0.920120000000     0.476313   
C18      C      0.018630000000     0.974660000000     0.836850000000     0.474282   
C19      C      0.026450000000     0.026750000000     0.895450000000     0.476184   
C20      C      0.016100000000     0.856490000000     0.862270000000     0.477252   
C21      C      0.036730000000     0.433050000000     0.943880000000     0.473453   
C22      C      0.016220000000     0.485030000000     0.858620000000     0.475558   
C23      C      0.030570000000     0.546580000000     0.913630000000     0.477042   
C24      C      0.022300000000     0.370710000000     0.888150000000     0.475934   
C25      C      0.564280000000     0.908930000000     0.879920000000     0.476241   
C26      C      0.561240000000     0.089530000000     0.896520000000     0.474045   
C27      C      0.555140000000     0.981840000000     0.931830000000     0.476539   
C28      C      0.571510000000     0.017390000000     0.844360000000     0.474344   
C29      C      0.559930000000     0.607230000000     0.948960000000     0.476155   
C30      C      0.555330000000     0.426150000000     0.933780000000     0.473919   
C31      C      0.562850000000     0.499890000000     0.985450000000     0.476324   
C32      C      0.551500000000     0.533150000000     0.897630000000     0.476181   
C33      C      0.951120000000     0.060920000000     0.354370000000     0.476131   
C34      C      0.116380000000     0.049330000000     0.389120000000     0.472505   
C35      C      0.997270000000     0.063070000000     0.413020000000     0.475127   
C36      C      0.067650000000     0.046570000000     0.330990000000     0.475811   
C37      C      0.929210000000     0.616280000000     0.394990000000     0.476607   
C38      C      0.107240000000     0.594320000000     0.399290000000     0.474871   
C39      C      0.021410000000     0.609880000000     0.352580000000     0.474094   
C40      C      0.014880000000     0.600880000000     0.442050000000     0.472961   
C41      C      0.539260000000     0.066370000000     0.345230000000     0.473085   
C42      C      0.537690000000     0.057730000000     0.434760000000     0.474919   
C43      C      0.627410000000     0.068070000000     0.390840000000     0.475488   
C44      C      0.448110000000     0.054970000000     0.390050000000     0.472738   
C45      C      0.516470000000     0.579270000000     0.487500000000     0.475868   
C46      C      0.536580000000     0.607690000000     0.399740000000     0.477165   
C47      C      0.437980000000     0.589350000000     0.437490000000     0.475426   
C48      C      0.615720000000     0.597490000000     0.449670000000     0.476971   
C49      C      0.997370000000     0.059930000000     0.583210000000     0.473592   
C50      C      0.018160000000     0.052790000000     0.672130000000     0.474401   
C51      C      0.095850000000     0.058400000000     0.622070000000     0.474783   
C52      C      0.917840000000     0.054010000000     0.633650000000     0.47531    
C53      C      0.982450000000     0.550800000000     0.609560000000     0.473192   
C54      C      0.945160000000     0.507600000000     0.694640000000     0.475822   
C55      C      0.876180000000     0.531210000000     0.642810000000     0.475793   
C56      C      0.051390000000     0.526700000000     0.662720000000     0.473269   
C57      C      0.534630000000     0.049000000000     0.678770000000     0.474279   
C58      C      0.463840000000     0.051280000000     0.596490000000     0.476382   
C59      C      0.582060000000     0.051320000000     0.619280000000     0.47653    
C60      C      0.417800000000     0.049550000000     0.655460000000     0.477265   
C61      C      0.397170000000     0.520340000000     0.683510000000     0.473429   
C62      C      0.572610000000     0.517190000000     0.703030000000     0.475997   
C63      C      0.466600000000     0.506370000000     0.737210000000     0.476866   
C64      C      0.503610000000     0.530840000000     0.650490000000     0.475013   
C65      C      0.648490000000     0.472080000000     0.705770000000     0.0192382  
C66      C      0.800530000000     0.576680000000     0.640020000000     0.0193543  
C67      C      0.800630000000     0.487910000000     0.634970000000     0.0183661  
C68      C      0.768840000000     0.574740000000     0.661900000000    -0.100867   
C69      C      0.679930000000     0.473920000000     0.683780000000    -0.101011   
C70      C      0.768280000000     0.479890000000     0.656370000000    -0.100974   
C71      C      0.704930000000     0.522710000000     0.680140000000     0.0161838  
C72      C      0.743730000000     0.525980000000     0.665420000000     0.0161579  
C73      C      0.648050000000     0.560920000000     0.710550000000     0.0185054  
C74      C      0.680240000000     0.568810000000     0.689090000000    -0.10091    
C75      C      0.120740000000     0.477000000000     0.673890000000     0.0182249  
C76      C      0.327080000000     0.568340000000     0.671620000000     0.0181277  
C77      C      0.327640000000     0.478830000000     0.666120000000     0.0175202  
C78      C      0.276310000000     0.567780000000     0.681010000000    -0.102142   
C79      C      0.172100000000     0.477940000000     0.665290000000    -0.102266   
C80      C      0.276110000000     0.474620000000     0.674410000000    -0.1019     
C81      C      0.199680000000     0.522980000000     0.672840000000     0.016759   
C82      C      0.248590000000     0.522380000000     0.674160000000     0.0166479  
C83      C      0.120740000000     0.565780000000     0.681580000000     0.0178967  
C84      C      0.172170000000     0.570720000000     0.673290000000    -0.102098   
C85      C      0.842590000000     0.097080000000     0.642190000000     0.0186351  
C86      C      0.651070000000     0.007770000000     0.602150000000     0.0188551  
C87      C      0.650510000000     0.097260000000     0.603170000000     0.0191268  
C88      C      0.698070000000     0.004500000000     0.615540000000    -0.100414   
C89      C      0.800450000000     0.099930000000     0.625300000000    -0.101959   
C90      C      0.697330000000     0.099920000000     0.616700000000    -0.101158   
C91      C      0.772620000000     0.052460000000     0.623540000000     0.0167098  
C92      C      0.725430000000     0.052380000000     0.617200000000     0.0162633  
C93      C      0.844020000000     0.007170000000     0.640740000000     0.0183934  
C94      C      0.801420000000     0.005440000000     0.624010000000    -0.101324   
C95      C      0.346770000000     0.094520000000     0.668730000000     0.0201688  
C96      C      0.170060000000     0.016400000000     0.610770000000     0.0181389  
C97      C      0.169720000000     0.105400000000     0.622590000000     0.0184455  
C98      C      0.213620000000     0.007920000000     0.626360000000    -0.102214   
C99      C      0.309670000000     0.099760000000     0.649270000000    -0.100836   
C100     C      0.223290000000     0.099940000000     0.618960000000    -0.104507   
C101     C      0.282360000000     0.052980000000     0.644230000000     0.0159608  
C102     C      0.241550000000     0.054160000000     0.631040000000     0.0188941  
C103     C      0.345390000000     0.005320000000     0.668050000000     0.018789   
C104     C      0.305730000000     0.003810000000     0.649560000000    -0.0998685  
C105     C      0.512070000000     0.587350000000     0.617070000000     0.0164382  
C106     C      0.516960000000     0.521610000000     0.520780000000     0.0166098  
C107     C      0.512430000000     0.613570000000     0.527700000000     0.0163593  
C108     C      0.487940000000     0.514520000000     0.543350000000    -0.104478   
C109     C      0.543080000000     0.592090000000     0.595030000000    -0.10443    
C110     C      0.483740000000     0.603400000000     0.550080000000    -0.104237   
C111     C      0.530920000000     0.551010000000     0.578530000000     0.021183   
C112     C      0.499690000000     0.555370000000     0.560090000000     0.0210651  
C113     C      0.513770000000     0.494660000000     0.611040000000     0.0166678  
C114     C      0.544870000000     0.503070000000     0.589290000000    -0.10466    
C115     C      0.541900000000     0.099790000000     0.473440000000     0.0185313  
C116     C      0.434240000000     0.007510000000     0.561070000000     0.0191853  
C117     C      0.434210000000     0.096840000000     0.561650000000     0.0193006  
C118     C      0.466550000000     0.004950000000     0.539380000000    -0.100305   
C119     C      0.500610000000     0.101710000000     0.490870000000    -0.101823   
C120     C      0.466780000000     0.100680000000     0.540150000000    -0.100869   
C121     C      0.493310000000     0.053980000000     0.504150000000     0.0166498  
C122     C      0.473310000000     0.053250000000     0.526370000000     0.0161733  
C123     C      0.540430000000     0.009870000000     0.471950000000     0.0180476  
C124     C      0.499750000000     0.007300000000     0.489840000000    -0.101161   
C125     C      0.027600000000     0.640870000000     0.480700000000     0.0155483  
C126     C      0.991910000000     0.523770000000     0.568210000000     0.0174976  
C127     C      0.986160000000     0.613500000000     0.578390000000     0.0156646  
C128     C      0.027260000000     0.536440000000     0.548780000000    -0.104062   
C129     C      0.000280000000     0.642830000000     0.504220000000    -0.103703   
C130     C      0.018930000000     0.625390000000     0.557450000000    -0.10401    
C131     C      0.000450000000     0.593590000000     0.516160000000     0.0186499  
C132     C      0.015580000000     0.585930000000     0.538890000000     0.0190376  
C133     C      0.012450000000     0.550390000000     0.478130000000     0.0168502  
C134     C      0.982000000000     0.553590000000     0.500320000000    -0.103263   
C135     C      0.850530000000     0.580980000000     0.386410000000     0.0208324  
C136     C      0.689050000000     0.644400000000     0.458210000000     0.0182176  
C137     C      0.693350000000     0.555790000000     0.452290000000     0.0197301  
C138     C      0.725270000000     0.654340000000     0.438590000000    -0.101074   
C139     C      0.818020000000     0.569410000000     0.407070000000    -0.101624   
C140     C      0.727230000000     0.560120000000     0.431430000000    -0.101263   
C141     C      0.793270000000     0.614290000000     0.417040000000     0.0164603  
C142     C      0.752120000000     0.609400000000     0.429920000000     0.0162246  
C143     C      0.856870000000     0.667850000000     0.396680000000     0.0177443  
C144     C      0.820220000000     0.662680000000     0.416650000000    -0.101266   
C145     C      0.369840000000     0.543870000000     0.421420000000     0.0169677  
C146     C      0.188200000000     0.629010000000     0.399850000000     0.0185468  
C147     C      0.173760000000     0.538820000000     0.405610000000     0.0183174  
C148     C      0.223950000000     0.626840000000     0.420100000000    -0.10272    
C149     C      0.322550000000     0.529290000000     0.432510000000    -0.103497   
C150     C      0.228060000000     0.536560000000     0.407160000000    -0.104185   
C151     C      0.290560000000     0.573380000000     0.433900000000     0.0177744  
C152     C      0.249100000000     0.578180000000     0.421440000000     0.0180364  
C153     C      0.359390000000     0.629530000000     0.436810000000     0.0166508  
C154     C      0.312450000000     0.614210000000     0.448210000000    -0.103282   
C155     C      0.998850000000     0.016980000000     0.544920000000     0.0182685  
C156     C      0.965030000000     0.114230000000     0.445390000000     0.017798   
C157     C      0.951500000000     0.025590000000     0.445570000000     0.0195163  
C158     C      0.979290000000     0.114350000000     0.471590000000    -0.10101    
C159     C      0.966100000000     0.019270000000     0.523450000000    -0.102794   
C160     C      0.968240000000     0.019840000000     0.471030000000    -0.101028   
C161     C      0.972520000000     0.066020000000     0.509410000000     0.0173825  
C162     C      0.969920000000     0.067130000000     0.485060000000     0.0165056  
C163     C      0.004410000000     0.107560000000     0.546330000000     0.0167399  
C164     C      0.973010000000     0.112070000000     0.524350000000    -0.102591   
C165     C      0.705220000000     0.027730000000     0.395480000000     0.0195151  
C166     C      0.883040000000     0.110000000000     0.339950000000     0.0181308  
C167     C      0.878390000000     0.020780000000     0.339580000000     0.0204018  
C168     C      0.839030000000     0.114810000000     0.355740000000    -0.100782   
C169     C      0.739400000000     0.022420000000     0.374820000000    -0.101496   
C170     C      0.836520000000     0.019100000000     0.356570000000    -0.100709   
C171     C      0.766630000000     0.069180000000     0.369740000000     0.0165422  
C172     C      0.811010000000     0.067760000000     0.359590000000     0.0161322  
C173     C      0.701430000000     0.117190000000     0.391420000000     0.0174415  
C174     C      0.738880000000     0.116820000000     0.371710000000    -0.101672   
C175     C      0.190360000000     0.091660000000     0.398810000000     0.0172119  
C176     C      0.377550000000     0.002720000000     0.394510000000     0.0169363  
C177     C      0.370530000000     0.095050000000     0.395020000000     0.0167363  
C178     C      0.327870000000     0.999850000000     0.383560000000    -0.105383   
C179     C      0.234060000000     0.085540000000     0.414430000000    -0.104505   
C180     C      0.322090000000     0.090180000000     0.383180000000    -0.10412    
C181     C      0.260720000000     0.041410000000     0.406100000000     0.0205984  
C182     C      0.299150000000     0.043440000000     0.391220000000     0.0210134  
C183     C      0.186320000000     0.998130000000     0.396140000000     0.015436   
C184     C      0.232050000000     0.996200000000     0.410820000000    -0.104253   
C185     C      0.477450000000     0.456730000000     0.773170000000     0.016529   
C186     C      0.507870000000     0.570430000000     0.864480000000     0.0196257  
C187     C      0.581990000000     0.522520000000     0.856960000000     0.0165007  
C188     C      0.479950000000     0.539120000000     0.847250000000    -0.102765   
C189     C      0.517130000000     0.471970000000     0.790260000000    -0.102665   
C190     C      0.555730000000     0.490130000000     0.839070000000    -0.102851   
C191     C      0.500490000000     0.513520000000     0.805850000000     0.0171081  
C192     C      0.512870000000     0.516580000000     0.829070000000     0.0176687  
C193     C      0.439720000000     0.538560000000     0.775790000000     0.0192242  
C194     C      0.477590000000     0.556060000000     0.793040000000    -0.102424   
C195     C      0.621330000000     0.019170000000     0.808650000000     0.0186832  
C196     C      0.532370000000     0.085540000000     0.718280000000     0.0165009  
C197     C      0.572840000000     0.004170000000     0.711230000000     0.0181994  
C198     C      0.568350000000     0.096500000000     0.737670000000    -0.103481   
C199     C      0.612030000000     0.001310000000     0.783450000000    -0.103816   
C200     C      0.609890000000     0.016750000000     0.730150000000    -0.104461   
C201     C      0.579490000000     0.036370000000     0.770890000000     0.0189479  
C202     C      0.587190000000     0.050000000000     0.748080000000     0.0188611  
C203     C      0.541880000000     0.061460000000     0.809490000000     0.0166086  
C204     C      0.533480000000     0.047660000000     0.783650000000    -0.102723   
C205     C      0.605600000000     0.683870000000     0.951860000000     0.0192696  
C206     C      0.521100000000     0.831030000000     0.875720000000     0.0186483  
C207     C      0.608420000000     0.831380000000     0.876780000000     0.0192806  
C208     C      0.517030000000     0.801240000000     0.898460000000    -0.101015   
C209     C      0.608990000000     0.713610000000     0.929100000000    -0.100928   
C210     C      0.610470000000     0.800980000000     0.899370000000    -0.100938   
C211     C      0.562720000000     0.739030000000     0.922060000000     0.0162057  
C212     C      0.563400000000     0.776650000000     0.906030000000     0.016287   
C213     C      0.518260000000     0.686170000000     0.952210000000     0.0184281  
C214     C      0.515620000000     0.715450000000     0.929260000000    -0.100789   
C215     C      0.509070000000     0.350270000000     0.929370000000     0.0155996  
C216     C      0.603920000000     0.166720000000     0.904050000000     0.0155973  
C217     C      0.514130000000     0.164850000000     0.900100000000     0.0162826  
C218     C      0.598520000000     0.203930000000     0.924000000000    -0.103226   
C219     C      0.509170000000     0.311480000000     0.909940000000    -0.10343    
C220     C      0.510350000000     0.201250000000     0.920400000000    -0.103736   
C221     C      0.553540000000     0.280720000000     0.912320000000     0.0191437  
C222     C      0.553830000000     0.233390000000     0.919920000000     0.0192107  
C223     C      0.599180000000     0.348970000000     0.929160000000     0.0161555  
C224     C      0.597750000000     0.311220000000     0.909390000000    -0.103389   
C225     C      0.951870000000     0.449030000000     0.727510000000     0.0172541  
C226     C      0.969800000000     0.528880000000     0.828270000000     0.018445   
C227     C      0.046380000000     0.487870000000     0.817620000000     0.0175137  
C228     C      0.944850000000     0.505250000000     0.807280000000    -0.102947   
C229     C      0.988600000000     0.458200000000     0.746960000000    -0.102421   
C230     C      0.022540000000     0.461560000000     0.796900000000    -0.103501   
C231     C      0.969300000000     0.494130000000     0.764900000000     0.0169028  
C232     C      0.980090000000     0.490420000000     0.788290000000     0.0181352  
C233     C      0.914480000000     0.530080000000     0.734250000000     0.018298   
C234     C      0.948130000000     0.540520000000     0.754810000000    -0.102211   
C235     C      0.010900000000     0.091890000000     0.711250000000     0.0171406  
C236     C      0.053640000000     0.972220000000     0.797050000000     0.0167658  
C237     C      0.974900000000     0.014190000000     0.804250000000     0.0176104  
C238     C      0.067500000000     0.012030000000     0.779740000000    -0.102712   
C239     C      0.985590000000     0.073390000000     0.733520000000    -0.103866   
C240     C      0.988780000000     0.054420000000     0.786720000000    -0.104028   
C241     C      0.015380000000     0.034630000000     0.745230000000     0.0189482  
C242     C      0.023630000000     0.034230000000     0.768940000000     0.0183707  
C243     C      0.053450000000     0.011890000000     0.706720000000     0.0179368  
C244     C      0.030160000000     0.993110000000     0.729280000000    -0.10374    
C245     C      0.076190000000     0.622900000000     0.917700000000     0.0192158  
C246     C      0.969530000000     0.781800000000     0.855130000000     0.018738   
C247     C      0.055800000000     0.781330000000     0.848930000000     0.02026    
C248     C      0.972220000000     0.746350000000     0.875930000000    -0.100695   
C249     C      0.072880000000     0.655940000000     0.896060000000    -0.100898   
C250     C      0.065110000000     0.746420000000     0.869360000000    -0.100821   
C251     C      0.024750000000     0.681340000000     0.893290000000     0.016113   
C252     C      0.020480000000     0.721210000000     0.878830000000     0.0162131  
C253     C      0.989870000000     0.623200000000     0.924150000000     0.0191811  
C254     C      0.980330000000     0.655940000000     0.902860000000    -0.100684   
C255     C      0.062120000000     0.297410000000     0.872260000000     0.019108   
C256     C      0.987340000000     0.097730000000     0.914060000000     0.0192236  
C257     C      0.074100000000     0.098040000000     0.907980000000     0.0184103  
C258     C      0.980280000000     0.144910000000     0.900380000000    -0.101199   
C259     C      0.069280000000     0.251680000000     0.887050000000    -0.101715   
C260     C      0.072610000000     0.145880000000     0.894270000000    -0.101249   
C261     C      0.023800000000     0.222470000000     0.890870000000     0.0164093  
C262     C      0.025910000000     0.173940000000     0.896600000000     0.0162517  
C263     C      0.975260000000     0.297190000000     0.878450000000     0.0184157  
C264     C      0.977260000000     0.250740000000     0.893230000000    -0.101458   
C265     C      0.556870000000     0.661140000000     0.366170000000     0.0174459  
C266     C      0.532400000000     0.578600000000     0.271810000000     0.0179294  
C267     C      0.609800000000     0.625100000000     0.270550000000     0.017094   
C268     C      0.515470000000     0.610390000000     0.292140000000    -0.103308   
C269     C      0.590830000000     0.651770000000     0.345390000000    -0.104544   
C270     C      0.592760000000     0.657940000000     0.290800000000    -0.104297   
C271     C      0.567540000000     0.617040000000     0.328260000000     0.019514   
C272     C      0.557580000000     0.629980000000     0.305640000000     0.0188107  
C273     C      0.518220000000     0.579320000000     0.359560000000     0.0182519  
C274     C      0.551520000000     0.569600000000     0.338960000000    -0.103562   
C275     C      0.601400000000     0.613740000000     0.105820000000     0.018859   
C276     C      0.523440000000     0.479370000000     0.023350000000     0.0194076  
C277     C      0.610440000000     0.488760000000     0.022020000000     0.0184431  
C278     C      0.517350000000     0.518470000000     0.042210000000    -0.101171   
C279     C      0.607450000000     0.571020000000     0.088900000000    -0.101585   
C280     C      0.610230000000     0.527790000000     0.041280000000    -0.101116   
C281     C      0.561740000000     0.557050000000     0.076030000000     0.0166555  
C282     C      0.563370000000     0.532410000000     0.054860000000     0.0164993  
C283     C      0.514100000000     0.604650000000     0.106980000000     0.0184197  
C284     C      0.515140000000     0.561870000000     0.089760000000    -0.10156    
C285     C      0.570350000000     0.040570000000     0.209100000000     0.0162615  
C286     C      0.528020000000     0.114460000000     0.308950000000     0.0179953  
C287     C      0.569160000000     0.033190000000     0.307510000000     0.016454   
C288     C      0.502170000000     0.103270000000     0.285810000000    -0.103897   
C289     C      0.580680000000     0.060330000000     0.233890000000    -0.102577   
C290     C      0.546520000000     0.022830000000     0.283430000000    -0.102525   
C291     C      0.535720000000     0.074460000000     0.246980000000     0.0177659  
C292     C      0.531600000000     0.069040000000     0.270900000000     0.017968   
C293     C      0.490860000000     0.082170000000     0.209140000000     0.0180004  
C294     C      0.501680000000     0.105780000000     0.233010000000    -0.103688   
C295     C      0.592560000000     0.965990000000     0.970710000000     0.0193137  
C296     C      0.511520000000     0.117310000000     0.045420000000     0.0190753  
C297     C      0.598530000000     0.109200000000     0.047460000000     0.0187481  
C298     C      0.506050000000     0.072990000000     0.029410000000    -0.101362   
C299     C      0.598110000000     0.009780000000     0.986980000000    -0.100248   
C300     C      0.598860000000     0.064430000000     0.031500000000    -0.101101   
C301     C      0.551600000000     0.026680000000     0.998300000000     0.0159703  
C302     C      0.552460000000     0.056250000000     0.017920000000     0.0164287  
C303     C      0.505750000000     0.974810000000     0.968000000000     0.0180011  
C304     C      0.505200000000     0.018620000000     0.984660000000    -0.100479   
C305     C      0.575340000000     0.922900000000     0.113580000000     0.0207594  
C306     C      0.508280000000     0.771110000000     0.191240000000     0.018522   
C307     C      0.595430000000     0.777050000000     0.187900000000     0.0192174  
C308     C      0.500310000000     0.801010000000     0.168770000000    -0.101378   
C309     C      0.584650000000     0.891850000000     0.135320000000    -0.101036   
C310     C      0.592950000000     0.805190000000     0.164720000000    -0.101386   
C311     C      0.540120000000     0.867050000000     0.144970000000     0.0162158  
C312     C      0.544390000000     0.828290000000     0.160160000000     0.0163951  
C313     C      0.489050000000     0.926650000000     0.120210000000     0.0178875  
C314     C      0.491830000000     0.891800000000     0.141360000000    -0.100896   
C315     C      0.517010000000     0.264760000000     0.134880000000     0.0186958  
C316     C      0.616890000000     0.437000000000     0.190920000000     0.0174951  
C317     C      0.529820000000     0.433920000000     0.196190000000     0.0200924  
C318     C      0.615550000000     0.395210000000     0.172920000000    -0.101227   
C319     C      0.517150000000     0.299660000000     0.155780000000    -0.101952   
C320     C      0.522880000000     0.397020000000     0.176540000000    -0.101783   
C321     C      0.565070000000     0.324320000000     0.159630000000     0.0166969  
C322     C      0.567930000000     0.368700000000     0.170760000000     0.0163861  
C323     C      0.604620000000     0.256270000000     0.135620000000     0.0178506  
C324     C      0.609350000000     0.293400000000     0.155640000000    -0.101827   
C325     C      0.040880000000     0.654570000000     0.316000000000     0.0175462  
C326     C      0.998030000000     0.554450000000     0.225730000000     0.0172339  
C327     C      0.080640000000     0.590730000000     0.221790000000     0.0165599  
C328     C      0.984850000000     0.594870000000     0.242820000000    -0.103349   
C329     C      0.067290000000     0.638630000000     0.293540000000    -0.104492   
C330     C      0.066830000000     0.631210000000     0.239220000000    -0.104153   
C331     C      0.035850000000     0.605600000000     0.279060000000     0.019515   
C332     C      0.028560000000     0.612460000000     0.255520000000     0.018382   
C333     C      0.991110000000     0.578300000000     0.314820000000     0.0177715  
C334     C      0.016130000000     0.562300000000     0.292260000000    -0.103736   
C335     C      0.005220000000     0.436570000000     0.073170000000     0.017491   
C336     C      0.089970000000     0.425510000000     0.978220000000     0.0156853  
C337     C      0.999850000000     0.416220000000     0.982480000000     0.017368   
C338     C      0.096270000000     0.392330000000     0.999780000000    -0.103871   
C339     C      0.008850000000     0.445610000000     0.046650000000    -0.103544   
C340     C      0.008970000000     0.381260000000     0.002890000000    -0.104305   
C341     C      0.053310000000     0.422320000000     0.036570000000     0.0190707  
C342     C      0.053330000000     0.397090000000     0.015640000000     0.0190076  
C343     C      0.094020000000     0.431730000000     0.076230000000     0.0167265  
C344     C      0.098670000000     0.436630000000     0.049300000000    -0.103313   
C345     C      0.075740000000     0.997200000000     0.294800000000     0.0174195  
C346     C      0.078160000000     0.097090000000     0.197570000000     0.0178627  
C347     C      0.000050000000     0.055010000000     0.202830000000     0.0177012  
C348     C      0.098120000000     0.072020000000     0.219560000000    -0.102639   
C349     C      0.043860000000     0.009770000000     0.273850000000    -0.101814   
C350     C      0.019340000000     0.025650000000     0.223650000000    -0.103013   
C351     C      0.065720000000     0.050620000000     0.259530000000     0.0166154  
C352     C      0.059100000000     0.053270000000     0.235720000000     0.0178356  
C353     C      0.109390000000     0.080820000000     0.296020000000     0.0175776  
C354     C      0.082590000000     0.094760000000     0.273440000000    -0.101993   
C355     C      0.069970000000     0.877920000000     0.954730000000     0.0190968  
C356     C      0.989880000000     0.001690000000     0.039780000000     0.0185387  
C357     C      0.078120000000     0.999400000000     0.038890000000     0.0167093  
C358     C      0.986310000000     0.954510000000     0.025740000000    -0.102427   
C359     C      0.075150000000     0.911820000000     0.975990000000    -0.100825   
C360     C      0.077970000000     0.952490000000     0.024420000000    -0.101937   
C361     C      0.029320000000     0.921030000000     0.989860000000     0.0162054  
C362     C      0.031120000000     0.944140000000     0.011440000000     0.0168425  
C363     C      0.982740000000     0.879030000000     0.956340000000     0.0193545  
C364     C      0.981460000000     0.913280000000     0.977570000000    -0.100621   
C365     C      0.998550000000     0.668520000000     0.111430000000     0.018641   
C366     C      0.086490000000     0.871910000000     0.142230000000     0.0178768  
C367     C      0.998670000000     0.870350000000     0.143760000000     0.0188366  
C368     C      0.088390000000     0.824860000000     0.127860000000    -0.101609   
C369     C      0.995980000000     0.717560000000     0.124000000000    -0.1011     
C370     C      0.995870000000     0.824080000000     0.128990000000    -0.101696   
C371     C      0.042410000000     0.746400000000     0.123730000000     0.0161089  
C372     C      0.042320000000     0.795490000000     0.128380000000     0.016354   
C373     C      0.086170000000     0.668920000000     0.110860000000     0.0184767  
C374     C      0.089060000000     0.718010000000     0.123360000000    -0.101108   
C375     C      0.001860000000     0.357110000000     0.176940000000     0.0196191  
C376     C      0.076430000000     0.201260000000     0.102650000000     0.0190684  
C377     C      0.989430000000     0.200550000000     0.106480000000     0.0187692  
C378     C      0.083390000000     0.232110000000     0.124820000000    -0.10075    
C379     C      0.995140000000     0.322420000000     0.156130000000    -0.100256   
C380     C      0.990290000000     0.232470000000     0.128630000000    -0.100898   
C381     C      0.040710000000     0.296860000000     0.148100000000     0.0158748  
C382     C      0.038050000000     0.257540000000     0.133170000000     0.0161074  
C383     C      0.088780000000     0.355890000000     0.174100000000     0.0185125  
C384     C      0.088770000000     0.321090000000     0.153010000000    -0.100499   
H1       H      0.705930000000     0.444000000000     0.685830000000     0.0408035  
H2       H      0.777410000000     0.579660000000     0.624150000000     0.0219855  
H3       H      0.670840000000     0.556920000000     0.726490000000     0.0219645  
H4       H      0.706510000000     0.596590000000     0.694570000000     0.0405558  
H5       H      0.742920000000     0.604710000000     0.659800000000     0.0405374  
H6       H      0.741900000000     0.452290000000     0.650810000000     0.0406883  
H7       H      0.626250000000     0.438840000000     0.705280000000     0.0307914  
H8       H      0.822940000000     0.609800000000     0.640650000000     0.0309384  
H9       H      0.658630000000     0.583950000000     0.674420000000     0.0490505  
H10      H      0.789770000000     0.464500000000     0.671030000000     0.0492937  
H11      H      0.625470000000     0.593460000000     0.713230000000     0.0309478  
H12      H      0.777970000000     0.492210000000     0.619010000000     0.0223675  
H13      H      0.657750000000     0.466350000000     0.667970000000     0.0498107  
H14      H      0.790840000000     0.582220000000     0.677790000000     0.0497342  
H15      H      0.823110000000     0.455310000000     0.632250000000     0.0311845  
H16      H      0.671800000000     0.469400000000     0.721590000000     0.0217254  
H17      H      0.187920000000     0.444280000000     0.672490000000     0.0406648  
H18      H      0.325890000000     0.574880000000     0.652230000000     0.0232886  
H19      H      0.120670000000     0.560460000000     0.701080000000     0.0231673  
H20      H      0.188270000000     0.597180000000     0.685660000000     0.04075    
H21      H      0.259940000000     0.601140000000     0.673760000000     0.0407024  
H22      H      0.260130000000     0.447340000000     0.662450000000     0.0406659  
H23      H      0.102030000000     0.446900000000     0.664760000000     0.03155    
H24      H      0.345960000000     0.599520000000     0.679750000000     0.0319626  
H25      H      0.172610000000     0.586530000000     0.655230000000     0.0484079  
H26      H      0.275540000000     0.459950000000     0.692700000000     0.0484393  
H27      H      0.102050000000     0.600430000000     0.677880000000     0.0315245  
H28      H      0.327820000000     0.481830000000     0.646510000000     0.0231631  
H29      H      0.172550000000     0.475770000000     0.645690000000     0.0488916  
H30      H      0.276990000000     0.570600000000     0.700600000000     0.0488439  
H31      H      0.346420000000     0.444720000000     0.670750000000     0.0317307  
H32      H      0.120740000000     0.468350000000     0.693100000000     0.022076   
H33      H      0.778360000000     0.130160000000     0.632040000000     0.0407492  
H34      H      0.658960000000     0.009020000000     0.582890000000     0.0223683  
H35      H      0.830700000000     0.004900000000     0.659220000000     0.0228707  
H36      H      0.779950000000     0.974130000000     0.630040000000     0.0403671  
H37      H      0.719200000000     0.976590000000     0.606120000000     0.0403011  
H38      H      0.718010000000     0.129140000000     0.608000000000     0.0406744  
H39      H      0.864070000000     0.130630000000     0.640370000000     0.0315209  
H40      H      0.630100000000     0.974370000000     0.605490000000     0.0310927  
H41      H      0.814120000000     0.997800000000     0.605800000000     0.0485271  
H42      H      0.689840000000     0.110970000000     0.635220000000     0.0491634  
H43      H      0.866490000000     0.974730000000     0.637560000000     0.0313632  
H44      H      0.658550000000     0.097880000000     0.583920000000     0.0221241  
H45      H      0.813380000000     0.109750000000     0.607380000000     0.0494327  
H46      H      0.690880000000     0.991430000000     0.633780000000     0.0482989  
H47      H      0.629070000000     0.130040000000     0.607160000000     0.0310304  
H48      H      0.828750000000     0.096130000000     0.660600000000     0.0225148  
H49      H      0.285130000000     0.128670000000     0.655340000000     0.0411966  
H50      H      0.182110000000     0.022370000000     0.592290000000     0.0231218  
H51      H      0.328870000000     0.005580000000     0.685910000000     0.0219071  
H52      H      0.279200000000     0.977100000000     0.655920000000     0.040334   
H53      H      0.236480000000     0.980610000000     0.617490000000     0.0408733  
H54      H      0.230740000000     0.096810000000     0.599730000000     0.0475757  
H55      H      0.369940000000     0.127100000000     0.669000000000     0.0304889  
H56      H      0.148060000000     0.983010000000     0.610730000000     0.0318161  
H57      H      0.321000000000     0.989760000000     0.632800000000     0.048323   
H58      H      0.240290000000     0.134000000000     0.624760000000     0.0413143  
H59      H      0.367320000000     0.971960000000     0.666700000000     0.0305123  
H60      H      0.155970000000     0.133750000000     0.610410000000     0.0271462  
H61      H      0.327450000000     0.111810000000     0.632760000000     0.0504128  
H62      H      0.201270000000     0.992860000000     0.643500000000     0.048423   
H63      H      0.162870000000     0.118460000000     0.640880000000     0.0291755  
H64      H      0.328190000000     0.092810000000     0.686070000000     0.0216041  
H65      H      0.540180000000     0.628710000000     0.587270000000     0.0411367  
H66      H      0.554920000000     0.514430000000     0.524770000000     0.0259457  
H67      H      0.477010000000     0.486590000000     0.605140000000     0.0259187  
H68      H      0.543280000000     0.471670000000     0.577230000000     0.041121   
H69      H      0.493180000000     0.477660000000     0.550460000000     0.0412307  
H70      H      0.485700000000     0.634340000000     0.562420000000     0.0412518  
H71      H      0.524420000000     0.614490000000     0.630230000000     0.0315047  
H72      H      0.505310000000     0.493940000000     0.507730000000     0.0319377  
H73      H      0.582530000000     0.504730000000     0.595050000000     0.0479791  
H74      H      0.445630000000     0.600930000000     0.545190000000     0.0482745  
H75      H      0.527150000000     0.461880000000     0.620330000000     0.0311926  
H76      H      0.549640000000     0.621790000000     0.532790000000     0.0256807  
H77      H      0.580860000000     0.588980000000     0.600450000000     0.0479224  
H78      H      0.449660000000     0.516240000000     0.538730000000     0.0483309  
H79      H      0.497710000000     0.646680000000     0.519240000000     0.0320862  
H80      H      0.474960000000     0.596930000000     0.612370000000     0.0256179  
H81      H      0.508850000000     0.132300000000     0.502900000000     0.0406588  
H82      H      0.396800000000     0.008290000000     0.554870000000     0.0217386  
H83      H      0.574500000000     0.007760000000     0.481800000000     0.0231475  
H84      H      0.507900000000     0.975690000000     0.501230000000     0.0402184  
H85      H      0.450450000000     0.977490000000     0.527480000000     0.0401174  
H86      H      0.450930000000     0.129070000000     0.528690000000     0.0404779  
H87      H      0.542100000000     0.133620000000     0.462790000000     0.0315891  
H88      H      0.438790000000     0.974130000000     0.571830000000     0.0306315  
H89      H      0.466160000000     0.999690000000     0.480280000000     0.0481991  
H90      H      0.502200000000     0.113310000000     0.546160000000     0.0493023  
H91      H      0.538540000000     0.977720000000     0.460150000000     0.0310799  
H92      H      0.396860000000     0.096260000000     0.555330000000     0.0215278  
H93      H      0.467510000000     0.110540000000     0.481150000000     0.0493288  
H94      H      0.501950000000     0.991670000000     0.545070000000     0.0486926  
H95      H      0.438490000000     0.129610000000     0.572870000000     0.0306123  
H96      H      0.575520000000     0.098890000000     0.483720000000     0.0230371  
H97      H      0.017240000000     0.671730000000     0.514780000000     0.0409354  
H98      H      0.956150000000     0.519400000000     0.560220000000     0.0252247  
H99      H      0.048790000000     0.538730000000     0.483190000000     0.0247441  
H100     H      0.979030000000     0.517580000000     0.508750000000     0.0416459  
H101     H      0.029390000000     0.507080000000     0.535530000000     0.0415319  
H102     H      0.008640000000     0.661780000000     0.551130000000     0.0409002  
H103     H      0.021160000000     0.675380000000     0.471090000000     0.0321598  
H104     H      0.002320000000     0.488220000000     0.575880000000     0.0317371  
H105     H      0.945220000000     0.563020000000     0.494960000000     0.0500661  
H106     H      0.056130000000     0.627780000000     0.563810000000     0.0476584  
H107     H      0.997270000000     0.521870000000     0.466500000000     0.0322276  
H108     H      0.948920000000     0.620270000000     0.572860000000     0.0253121  
H109     H      0.963010000000     0.653850000000     0.500810000000     0.0478634  
H110     H      0.063260000000     0.537980000000     0.556760000000     0.0497018  
H111     H      0.994200000000     0.639370000000     0.592900000000     0.0322944  
H112     H      0.066150000000     0.639270000000     0.484720000000     0.0248317  
H113     H      0.792160000000     0.542600000000     0.400160000000     0.0407671  
H114     H      0.708570000000     0.640680000000     0.475200000000     0.0225349  
H115     H      0.837820000000     0.678190000000     0.380220000000     0.0223973  
H116     H      0.795480000000     0.693660000000     0.414540000000     0.0404499  
H117     H      0.749990000000     0.681860000000     0.445860000000     0.0405698  
H118     H      0.753140000000     0.530170000000     0.433640000000     0.0407667  
H119     H      0.870610000000     0.547900000000     0.381340000000     0.0303833  
H120     H      0.665000000000     0.676100000000     0.459940000000     0.0314475  
H121     H      0.838770000000     0.666780000000     0.433860000000     0.0478255  
H122     H      0.707150000000     0.554080000000     0.414780000000     0.0496553  
H123     H      0.881740000000     0.697760000000     0.401090000000     0.0308374  
H124     H      0.714710000000     0.553020000000     0.468780000000     0.0222662  
H125     H      0.839030000000     0.552090000000     0.421380000000     0.0508511  
H126     H      0.706470000000     0.670570000000     0.423250000000     0.0480998  
H127     H      0.672530000000     0.521770000000     0.450620000000     0.031028   
H128     H      0.828200000000     0.591340000000     0.371000000000     0.0214617  
H129     H      0.308470000000     0.498630000000     0.422130000000     0.0406833  
H130     H      0.169920000000     0.664670000000     0.400330000000     0.0317947  
H131     H      0.351800000000     0.646600000000     0.419420000000     0.0249954  
H132     H      0.289260000000     0.646230000000     0.450600000000     0.0409406  
H133     H      0.205350000000     0.633780000000     0.437080000000     0.0494158  
H134     H      0.235760000000     0.500860000000     0.415220000000     0.0413143  
H135     H      0.393860000000     0.511970000000     0.421880000000     0.0322101  
H136     H      0.207730000000     0.627020000000     0.382810000000     0.0239471  
H137     H      0.319880000000     0.600590000000     0.466330000000     0.0489671  
H138     H      0.243410000000     0.537340000000     0.389080000000     0.0471306  
H139     H      0.376380000000     0.657310000000     0.448250000000     0.0311849  
H140     H      0.158430000000     0.525020000000     0.422440000000     0.0281519  
H141     H      0.328990000000     0.515450000000     0.450680000000     0.0488874  
H142     H      0.249920000000     0.656400000000     0.416870000000     0.0420599  
H143     H      0.161560000000     0.513760000000     0.391460000000     0.0284105  
H144     H      0.363620000000     0.552710000000     0.402490000000     0.0235645  
H145     H      0.974250000000     0.986170000000     0.513190000000     0.0407018  
H146     H      0.926300000000     0.121490000000     0.444210000000     0.0226876  
H147     H      0.042130000000     0.108730000000     0.540630000000     0.0240987  
H148     H      0.986560000000     0.144140000000     0.514760000000     0.0408033  
H149     H      0.959150000000     0.144740000000     0.479600000000     0.040533   
H150     H      0.942900000000     0.993920000000     0.479110000000     0.040327   
H151     H      0.989410000000     0.984230000000     0.555360000000     0.0317384  
H152     H      0.983480000000     0.144580000000     0.436320000000     0.0314496  
H153     H      0.936080000000     0.120080000000     0.529940000000     0.0484574  
H154     H      0.004200000000     0.003380000000     0.471040000000     0.0493739  
H155     H      0.998150000000     0.139770000000     0.557720000000     0.0321055  
H156     H      0.912540000000     0.031950000000     0.445740000000     0.0222044  
H157     H      0.928650000000     0.016910000000     0.529410000000     0.0490233  
H158     H      0.017750000000     0.122650000000     0.472860000000     0.0478539  
H159     H      0.957680000000     0.990990000000     0.436000000000     0.0308637  
H160     H      0.035910000000     0.012220000000     0.538620000000     0.0239995  
H161     H      0.763130000000     0.992010000000     0.379750000000     0.0404342  
H162     H      0.871310000000     0.110800000000     0.321180000000     0.0219897  
H163     H      0.719900000000     0.122420000000     0.408600000000     0.0231707  
H164     H      0.762450000000     0.148050000000     0.375440000000     0.0407437  
H165     H      0.816330000000     0.142780000000     0.347310000000     0.0405861  
H166     H      0.812060000000     0.991210000000     0.349370000000     0.0402747  
H167     H      0.684200000000     0.993870000000     0.397270000000     0.0312838  
H168     H      0.906570000000     0.141780000000     0.342770000000     0.0312019  
H169     H      0.721010000000     0.123530000000     0.354520000000     0.0482208  
H170     H      0.849390000000     0.006910000000     0.374160000000     0.0499808  
H171     H      0.677480000000     0.148710000000     0.388770000000     0.0314682  
H172     H      0.864370000000     0.023010000000     0.321230000000     0.0211894  
H173     H      0.719340000000     0.011880000000     0.358720000000     0.0497416  
H174     H      0.850470000000     0.128510000000     0.373320000000     0.0482099  
H175     H      0.898990000000     0.986560000000     0.340970000000     0.0300942  
H176     H      0.726320000000     0.031970000000     0.411960000000     0.0227698  
H177     H      0.255280000000     0.119200000000     0.415160000000     0.0413305  
H178     H      0.374640000000     0.995010000000     0.413750000000     0.0247145  
H179     H      0.195100000000     0.988940000000     0.377510000000     0.0267657  
H180     H      0.250550000000     0.961650000000     0.407520000000     0.0410083  
H181     H      0.312330000000     0.964320000000     0.387940000000     0.0417616  
H182     H      0.300820000000     0.123270000000     0.386040000000     0.0415914  
H183     H      0.168250000000     0.121240000000     0.406360000000     0.0308764  
H184     H      0.399520000000     0.973420000000     0.386640000000     0.0320721  
H185     H      0.222320000000     0.995050000000     0.429860000000     0.0469915  
H186     H      0.327470000000     0.088510000000     0.363720000000     0.0491526  
H187     H      0.162040000000     0.969310000000     0.402650000000     0.0314     
H188     H      0.365310000000     0.100800000000     0.414290000000     0.0254772  
H189     H      0.222090000000     0.079850000000     0.432950000000     0.0482769  
H190     H      0.331350000000     0.000380000000     0.363990000000     0.049194   
H191     H      0.388100000000     0.127990000000     0.387840000000     0.0316349  
H192     H      0.201780000000     0.103630000000     0.380920000000     0.0270579  
H193     H      0.526760000000     0.439570000000     0.800890000000     0.0415125  
H194     H      0.521780000000     0.602380000000     0.854690000000     0.022129   
H195     H      0.409550000000     0.523840000000     0.786210000000     0.0222144  
H196     H      0.462010000000     0.583870000000     0.804770000000     0.0413159  
H197     H      0.450510000000     0.560640000000     0.839750000000     0.0411286  
H198     H      0.581460000000     0.480310000000     0.825000000000     0.0416651  
H199     H      0.491490000000     0.428880000000     0.760820000000     0.0314767  
H200     H      0.483870000000     0.584200000000     0.878550000000     0.029044   
H201     H      0.505750000000     0.574870000000     0.782820000000     0.0524504  
H202     H      0.543770000000     0.456310000000     0.847920000000     0.048015   
H203     H      0.426200000000     0.569670000000     0.765280000000     0.0301808  
H204     H      0.599110000000     0.552830000000     0.847210000000     0.024834   
H205     H      0.548780000000     0.483690000000     0.780060000000     0.0490975  
H206     H      0.462950000000     0.509200000000     0.857310000000     0.0519316  
H207     H      0.610240000000     0.500870000000     0.865700000000     0.030071   
H208     H      0.448290000000     0.439990000000     0.783590000000     0.0242899  
H209     H      0.647030000000     0.998530000000     0.774560000000     0.0412477  
H210     H      0.499330000000     0.072000000000     0.726710000000     0.0233279  
H211     H      0.556150000000     0.099030000000     0.809960000000     0.0230026  
H212     H      0.512230000000     0.076500000000     0.775100000000     0.0422375  
H213     H      0.553090000000     0.121430000000     0.751030000000     0.0415665  
H214     H      0.623000000000     0.982280000000     0.737840000000     0.0413275  
H215     H      0.642850000000     0.991350000000     0.818000000000     0.0298133  
H216     H      0.523280000000     0.119970000000     0.709130000000     0.0316128  
H217     H      0.511260000000     0.014410000000     0.783200000000     0.0502055  
H218     H      0.640450000000     0.035480000000     0.721770000000     0.0484675  
H219     H      0.507290000000     0.062020000000     0.818900000000     0.0313147  
H220     H      0.545250000000     0.980530000000     0.719260000000     0.0266744  
H221     H      0.595440000000     0.964770000000     0.783900000000     0.0487964  
H222     H      0.598560000000     0.116430000000     0.729620000000     0.0490301  
H223     H      0.590550000000     0.983070000000     0.696990000000     0.0291029  
H224     H      0.642520000000     0.053150000000     0.807850000000     0.0258031  
H225     H      0.637900000000     0.740210000000     0.932120000000     0.0405678  
H226     H      0.522690000000     0.805560000000     0.860490000000     0.0221634  
H227     H      0.519840000000     0.711990000000     0.967300000000     0.0226409  
H228     H      0.487670000000     0.743180000000     0.932090000000     0.0406968  
H229     H      0.488780000000     0.774030000000     0.895190000000     0.0405101  
H230     H      0.638700000000     0.773630000000     0.896370000000     0.040613   
H231     H      0.637330000000     0.660250000000     0.953550000000     0.0306322  
H232     H      0.488810000000     0.853660000000     0.873540000000     0.0310492  
H233     H      0.504040000000     0.691030000000     0.914740000000     0.0486828  
H234     H      0.621490000000     0.824740000000     0.914250000000     0.0497033  
H235     H      0.485430000000     0.664300000000     0.954220000000     0.0312265  
H236     H      0.608620000000     0.806290000000     0.861370000000     0.0217844  
H237     H      0.619700000000     0.689180000000     0.914420000000     0.0500561  
H238     H      0.505240000000     0.825530000000     0.912990000000     0.0495206  
H239     H      0.640700000000     0.854320000000     0.875490000000     0.0305404  
H240     H      0.605870000000     0.709370000000     0.967110000000     0.0219195  
H241     H      0.475240000000     0.291810000000     0.910430000000     0.0408837  
H242     H      0.611730000000     0.186370000000     0.887340000000     0.0249133  
H243     H      0.603970000000     0.329980000000     0.946330000000     0.0251948  
H244     H      0.631430000000     0.290990000000     0.908630000000     0.041117   
H245     H      0.631400000000     0.225110000000     0.926140000000     0.0411079  
H246     H      0.475910000000     0.219910000000     0.919440000000     0.0409084  
H247     H      0.478240000000     0.374590000000     0.926410000000     0.0319555  
H248     H      0.634920000000     0.143270000000     0.908060000000     0.0318094  
H249     H      0.595760000000     0.330580000000     0.892180000000     0.0485383  
H250     H      0.509590000000     0.180970000000     0.937390000000     0.0487241  
H251     H      0.630800000000     0.372280000000     0.926370000000     0.032445   
H252     H      0.511840000000     0.184850000000     0.883070000000     0.0247708  
H253     H      0.509790000000     0.329920000000     0.892470000000     0.0479825  
H254     H      0.594750000000     0.183890000000     0.940950000000     0.0486928  
H255     H      0.482970000000     0.140300000000     0.901020000000     0.0325694  
H256     H      0.503810000000     0.332120000000     0.946720000000     0.025307   
H257     H      0.996680000000     0.422650000000     0.755280000000     0.04144    
H258     H      0.982650000000     0.565180000000     0.822600000000     0.0224219  
H259     H      0.881730000000     0.513450000000     0.741590000000     0.0223809  
H260     H      0.929240000000     0.563070000000     0.767940000000     0.0413045  
H261     H      0.916430000000     0.529670000000     0.801010000000     0.0413482  
H262     H      0.049700000000     0.457210000000     0.782840000000     0.0417644  
H263     H      0.967710000000     0.424700000000     0.713990000000     0.0312346  
H264     H      0.943890000000     0.534680000000     0.842800000000     0.030041   
H265     H      0.977840000000     0.563100000000     0.748100000000     0.0512024  
H266     H      0.010680000000     0.424970000000     0.802610000000     0.0487449  
H267     H      0.904140000000     0.564670000000     0.725600000000     0.0303095  
H268     H      0.062470000000     0.522060000000     0.810970000000     0.0246886  
H269     H      0.021680000000     0.472880000000     0.739050000000     0.0485773  
H270     H      0.926790000000     0.471870000000     0.813600000000     0.0509008  
H271     H      0.075320000000     0.464560000000     0.824600000000     0.0309224  
H272     H      0.920850000000     0.430110000000     0.735410000000     0.0240828  
H273     H      0.979980000000     0.105150000000     0.745260000000     0.0415921  
H274     H      0.038910000000     0.941250000000     0.786830000000     0.0231564  
H275     H      0.088940000000     0.026560000000     0.711410000000     0.0230149  
H276     H      0.053860000000     0.966370000000     0.737850000000     0.0419877  
H277     H      0.093240000000     0.998140000000     0.766590000000     0.0413995  
H278     H      0.955710000000     0.067950000000     0.778410000000     0.0416529  
H279     H      0.986860000000     0.117510000000     0.701940000000     0.0308513  
H280     H      0.086120000000     0.958980000000     0.806090000000     0.0317955  
H281     H      0.997650000000     0.972780000000     0.724300000000     0.0505348  
H282     H      0.005540000000     0.084960000000     0.796420000000     0.0481259  
H283     H      0.059220000000     0.981050000000     0.694410000000     0.0308502  
H284     H      0.952520000000     0.987110000000     0.794890000000     0.0260126  
H285     H      0.950470000000     0.058040000000     0.728720000000     0.0487451  
H286     H      0.086530000000     0.040850000000     0.789670000000     0.0499373  
H287     H      0.953100000000     0.030520000000     0.818570000000     0.0300661  
H288     H      0.043130000000     0.112290000000     0.716660000000     0.0255878  
H289     H      0.102100000000     0.682630000000     0.897910000000     0.0407078  
H290     H      0.965560000000     0.760530000000     0.838540000000     0.0219347  
H291     H      0.995620000000     0.646570000000     0.939930000000     0.0223028  
H292     H      0.953310000000     0.682620000000     0.908730000000     0.0406075  
H293     H      0.943630000000     0.719300000000     0.873070000000     0.0404928  
H294     H      0.091160000000     0.719520000000     0.862690000000     0.0407824  
H295     H      0.108350000000     0.599790000000     0.916340000000     0.0307669  
H296     H      0.937580000000     0.805060000000     0.856990000000     0.0308515  
H297     H      0.964800000000     0.633680000000     0.888440000000     0.0492851  
H298     H      0.081700000000     0.766970000000     0.884100000000     0.0506815  
H299     H      0.958230000000     0.600340000000     0.927700000000     0.0309047  
H300     H      0.049810000000     0.759660000000     0.832610000000     0.0212928  
H301     H      0.079490000000     0.633910000000     0.879940000000     0.0499611  
H302     H      0.964390000000     0.766580000000     0.892460000000     0.0492501  
H303     H      0.087570000000     0.804330000000     0.845870000000     0.0300788  
H304     H      0.080250000000     0.646030000000     0.933680000000     0.0220199  
H305     H      0.096540000000     0.230290000000     0.877520000000     0.0407434  
H306     H      0.992990000000     0.106910000000     0.933000000000     0.0223668  
H307     H      0.969580000000     0.286890000000     0.859650000000     0.022464   
H308     H      0.946480000000     0.228800000000     0.887360000000     0.0406008  
H309     H      0.953930000000     0.165950000000     0.910710000000     0.0405924  
H310     H      0.102890000000     0.167490000000     0.901040000000     0.0406843  
H311     H      0.094940000000     0.319640000000     0.872920000000     0.0313648  
H312     H      0.954450000000     0.075690000000     0.912980000000     0.0310685  
H313     H      0.972170000000     0.260250000000     0.912140000000     0.0487307  
H314     H      0.078760000000     0.138160000000     0.875240000000     0.048683   
H315     H      0.944180000000     0.319050000000     0.884100000000     0.0313404  
H316     H      0.079460000000     0.106480000000     0.927020000000     0.0225292  
H317     H      0.083760000000     0.262050000000     0.904600000000     0.0495644  
H318     H      0.964780000000     0.136370000000     0.882810000000     0.0491553  
H319     H      0.105130000000     0.076510000000     0.901980000000     0.0312566  
H320     H      0.056740000000     0.286340000000     0.853540000000     0.0219979  
H321     H      0.599380000000     0.687310000000     0.337230000000     0.041315   
H322     H      0.548160000000     0.545040000000     0.279350000000     0.0223215  
H323     H      0.484580000000     0.594420000000     0.352430000000     0.0223209  
H324     H      0.534780000000     0.544590000000     0.326090000000     0.0421187  
H325     H      0.489810000000     0.590540000000     0.303410000000     0.0420576  
H326     H      0.624360000000     0.669870000000     0.300920000000     0.0415282  
H327     H      0.575760000000     0.682980000000     0.379740000000     0.0293041  
H328     H      0.501400000000     0.567500000000     0.260970000000     0.0310178  
H329     H      0.583320000000     0.550350000000     0.345780000000     0.0505871  
H330     H      0.575230000000     0.690650000000     0.283380000000     0.0487422  
H331     H      0.509430000000     0.544410000000     0.368330000000     0.030632   
H332     H      0.631530000000     0.595240000000     0.278100000000     0.0257653  
H333     H      0.624280000000     0.635500000000     0.352070000000     0.0484632  
H334     H      0.495650000000     0.641630000000     0.284640000000     0.0506265  
H335     H      0.632910000000     0.646810000000     0.258650000000     0.0308237  
H336     H      0.526250000000     0.682780000000     0.359700000000     0.0256243  
H337     H      0.635720000000     0.582220000000     0.076420000000     0.040654   
H338     H      0.528240000000     0.443900000000     0.032410000000     0.0223164  
H339     H      0.509840000000     0.638600000000     0.096570000000     0.0227314  
H340     H      0.484530000000     0.567600000000     0.077780000000     0.0406729  
H341     H      0.490900000000     0.503780000000     0.054850000000     0.0406425  
H342     H      0.639760000000     0.518250000000     0.053380000000     0.0406361  
H343     H      0.634090000000     0.617730000000     0.116590000000     0.0311789  
H344     H      0.490520000000     0.476820000000     0.012650000000     0.0312325  
H345     H      0.509180000000     0.527770000000     0.099790000000     0.0487238  
H346     H      0.618240000000     0.563380000000     0.032980000000     0.0488032  
H347     H      0.482580000000     0.601170000000     0.118630000000     0.0312664  
H348     H      0.614530000000     0.452780000000     0.030670000000     0.0225776  
H349     H      0.620210000000     0.539020000000     0.099000000000     0.0493183  
H350     H      0.502360000000     0.551500000000     0.033800000000     0.0497572  
H351     H      0.641680000000     0.494270000000     0.010370000000     0.0313221  
H352     H      0.597510000000     0.647360000000     0.095130000000     0.0224009  
H353     H      0.602910000000     0.033730000000     0.243420000000     0.0414738  
H354     H      0.560350000000     0.136040000000     0.304940000000     0.0255863  
H355     H      0.470540000000     0.048190000000     0.212210000000     0.0250217  
H356     H      0.467190000000     0.110170000000     0.242230000000     0.0413639  
H357     H      0.496140000000     0.138560000000     0.276860000000     0.0414626  
H358     H      0.570830000000     0.999740000000     0.273020000000     0.0412001  
H359     H      0.604230000000     0.037620000000     0.199180000000     0.031428   
H360     H      0.504330000000     0.137240000000     0.320070000000     0.0309014  
H361     H      0.517540000000     0.142220000000     0.230240000000     0.048764   
H362     H      0.514110000000     0.000730000000     0.286360000000     0.0495875  
H363     H      0.467890000000     0.107300000000     0.198900000000     0.0311274  
H364     H      0.605450000000     0.047580000000     0.304430000000     0.0232886  
H365     H      0.602690000000     0.093520000000     0.232020000000     0.0495455  
H366     H      0.467200000000     0.086440000000     0.289620000000     0.0487151  
H367     H      0.573070000000     0.998460000000     0.317280000000     0.0314804  
H368     H      0.555970000000     0.003230000000     0.210990000000     0.0232975  
H369     H      0.624300000000     0.998780000000     0.000610000000     0.0401227  
H370     H      0.516030000000     0.149870000000     0.034030000000     0.0222486  
H371     H      0.501550000000     0.941370000000     0.978800000000     0.0222794  
H372     H      0.475100000000     0.012530000000     0.996950000000     0.0406055  
H373     H      0.479380000000     0.083290000000     0.015900000000     0.0406607  
H374     H      0.629170000000     0.069580000000     0.019240000000     0.0405113  
H375     H      0.625790000000     0.960440000000     0.960520000000     0.0303992  
H376     H      0.478510000000     0.122510000000     0.055830000000     0.0311536  
H377     H      0.497710000000     0.051740000000     0.974110000000     0.0484345  
H378     H      0.605920000000     0.031870000000     0.042520000000     0.0491422  
H379     H      0.474950000000     0.976970000000     0.955810000000     0.0308839  
H380     H      0.602060000000     0.141950000000     0.036110000000     0.0223421  
H381     H      0.613200000000     0.040380000000     0.976650000000     0.0497454  
H382     H      0.491550000000     0.042490000000     0.040010000000     0.0498263  
H383     H      0.629820000000     0.108140000000     0.059370000000     0.0311141  
H384     H      0.587150000000     0.933240000000     0.981870000000     0.02183    
H385     H      0.611650000000     0.864770000000     0.129870000000     0.04058    
H386     H      0.509010000000     0.796390000000     0.206560000000     0.0222773  
H387     H      0.483110000000     0.904850000000     0.103930000000     0.0222415  
H388     H      0.463550000000     0.864420000000     0.138540000000     0.0406498  
H389     H      0.470850000000     0.826250000000     0.172930000000     0.0407273  
H390     H      0.621380000000     0.832910000000     0.165850000000     0.0404697  
H391     H      0.607510000000     0.944430000000     0.109270000000     0.029913   
H392     H      0.477830000000     0.746150000000     0.193860000000     0.0314164  
H393     H      0.483340000000     0.912480000000     0.157680000000     0.0479758  
H394     H      0.601280000000     0.780270000000     0.149860000000     0.0496359  
H395     H      0.458050000000     0.951080000000     0.122420000000     0.0307996  
H396     H      0.595430000000     0.803500000000     0.202750000000     0.0219653  
H397     H      0.599960000000     0.915070000000     0.149440000000     0.0503269  
H398     H      0.488430000000     0.776360000000     0.154410000000     0.0490597  
H399     H      0.629380000000     0.756700000000     0.188690000000     0.0310907  
H400     H      0.568340000000     0.898420000000     0.098340000000     0.0215396  
H401     H      0.488740000000     0.326250000000     0.151830000000     0.0406241  
H402     H      0.623120000000     0.421320000000     0.208770000000     0.0228052  
H403     H      0.608310000000     0.275770000000     0.118500000000     0.0229863  
H404     H      0.640520000000     0.315840000000     0.150880000000     0.0405982  
H405     H      0.644030000000     0.369930000000     0.178470000000     0.0405392  
H406     H      0.494250000000     0.372690000000     0.182890000000     0.0405344  
H407     H      0.482720000000     0.244940000000     0.134710000000     0.0316242  
H408     H      0.647510000000     0.460900000000     0.186810000000     0.0311948  
H409     H      0.617480000000     0.273920000000     0.172340000000     0.0485922  
H410     H      0.510550000000     0.415930000000     0.160330000000     0.0499905  
H411     H      0.634520000000     0.230170000000     0.136810000000     0.0317463  
H412     H      0.535160000000     0.413990000000     0.213090000000     0.0218539  
H413     H      0.507430000000     0.279610000000     0.172110000000     0.0487629  
H414     H      0.624840000000     0.409880000000     0.155220000000     0.0473398  
H415     H      0.496910000000     0.455690000000     0.198110000000     0.0309461  
H416     H      0.519050000000     0.286320000000     0.118280000000     0.0232964  
H417     H      0.077140000000     0.672030000000     0.283740000000     0.0415177  
H418     H      0.008150000000     0.521850000000     0.236130000000     0.023107   
H419     H      0.957600000000     0.596850000000     0.309800000000     0.0226796  
H420     H      0.991900000000     0.539450000000     0.281630000000     0.0424913  
H421     H      0.956110000000     0.583160000000     0.254930000000     0.041599   
H422     H      0.099330000000     0.642740000000     0.248710000000     0.0414     
H423     H      0.065920000000     0.675060000000     0.327440000000     0.0297604  
H424     H      0.966040000000     0.544700000000     0.215300000000     0.0319847  
H425     H      0.046370000000     0.538540000000     0.297190000000     0.0507455  
H426     H      0.053110000000     0.662960000000     0.229250000000     0.0479344  
H427     H      0.981220000000     0.545630000000     0.325210000000     0.0310498  
H428     H      0.100370000000     0.562170000000     0.231570000000     0.0266557  
H429     H      0.100270000000     0.619010000000     0.298410000000     0.0487106  
H430     H      0.969990000000     0.625580000000     0.232480000000     0.0493597  
H431     H      0.105070000000     0.606210000000     0.208330000000     0.0301943  
H432     H      0.011650000000     0.679530000000     0.310920000000     0.0257482  
H433     H      0.975260000000     0.433910000000     0.038480000000     0.0419098  
H434     H      0.095520000000     0.463670000000     0.983920000000     0.02599    
H435     H      0.095180000000     0.392520000000     0.080820000000     0.0232657  
H436     H      0.129090000000     0.413340000000     0.044480000000     0.0408899  
H437     H      0.130540000000     0.401180000000     0.008120000000     0.0407304  
H438     H      0.977380000000     0.377130000000     0.014270000000     0.0411964  
H439     H      0.973400000000     0.455870000000     0.079910000000     0.031952   
H440     H      0.118490000000     0.416830000000     0.965340000000     0.03217    
H441     H      0.107550000000     0.474710000000     0.044680000000     0.0487593  
H442     H      0.014770000000     0.344460000000     0.995390000000     0.0488006  
H443     H      0.125480000000     0.448980000000     0.084530000000     0.0318444  
H444     H      0.990030000000     0.452300000000     0.989760000000     0.0259502  
H445     H      0.011150000000     0.485340000000     0.043560000000     0.0509946  
H446     H      0.099250000000     0.354160000000     0.993630000000     0.0472849  
H447     H      0.968910000000     0.402550000000     0.972290000000     0.0314305  
H448     H      0.999770000000     0.397120000000     0.076210000000     0.024199   
H449     H      0.039850000000     0.976320000000     0.263080000000     0.0411866  
H450     H      0.063850000000     0.132920000000     0.203060000000     0.0223376  
H451     H      0.145200000000     0.067790000000     0.290800000000     0.022558   
H452     H      0.105260000000     0.119620000000     0.263090000000     0.0411289  
H453     H      0.123080000000     0.097170000000     0.228320000000     0.0411106  
H454     H      0.989220000000     0.018950000000     0.235870000000     0.0419067  
H455     H      0.058550000000     0.968100000000     0.305320000000     0.0319839  
H456     H      0.107330000000     0.104010000000     0.184810000000     0.0300449  
H457     H      0.050680000000     0.115890000000     0.278600000000     0.0505115  
H458     H      0.032920000000     0.990150000000     0.217270000000     0.0486539  
H459     H      0.114330000000     0.113470000000     0.307260000000     0.0308626  
H460     H      0.982920000000     0.088470000000     0.209730000000     0.0245938  
H461     H      0.008330000000     0.021040000000     0.280320000000     0.0494476  
H462     H      0.119480000000     0.040350000000     0.213740000000     0.0503236  
H463     H      0.972530000000     0.033100000000     0.193680000000     0.0310438  
H464     H      0.109940000000     0.982780000000     0.287970000000     0.0238029  
H465     H      0.102300000000     0.894960000000     0.987580000000     0.0405529  
H466     H      0.988980000000     0.032520000000     0.027100000000     0.0235879  
H467     H      0.983590000000     0.841100000000     0.963030000000     0.0215677  
H468     H      0.955390000000     0.897430000000     0.990090000000     0.040363   
H469     H      0.954230000000     0.958490000000     0.014630000000     0.0406136  
H470     H      0.108720000000     0.955430000000     0.012340000000     0.0406595  
H471     H      0.101520000000     0.881600000000     0.943110000000     0.0307717  
H472     H      0.958170000000     0.004950000000     0.051310000000     0.031829   
H473     H      0.968070000000     0.949110000000     0.971540000000     0.048964   
H474     H      0.084310000000     0.921270000000     0.036420000000     0.0487468  
H475     H      0.949650000000     0.883260000000     0.945890000000     0.0304715  
H476     H      0.079800000000     0.030550000000     0.026430000000     0.0240479  
H477     H      0.088860000000     0.947270000000     0.969610000000     0.0490248  
H478     H      0.980280000000     0.923880000000     0.038130000000     0.0491714  
H479     H      0.110760000000     0.000370000000     0.049860000000     0.0322099  
H480     H      0.069300000000     0.839910000000     0.961320000000     0.0217337  
H481     H      0.967190000000     0.737780000000     0.114970000000     0.0405378  
H482     H      0.088750000000     0.862430000000     0.161310000000     0.0226002  
H483     H      0.085570000000     0.675490000000     0.091460000000     0.0225474  
H484     H      0.117160000000     0.738450000000     0.113920000000     0.0405233  
H485     H      0.118540000000     0.804090000000     0.135320000000     0.0405489  
H486     H      0.966600000000     0.802710000000     0.136910000000     0.0405259  
H487     H      0.966410000000     0.647100000000     0.115840000000     0.0313377  
H488     H      0.118100000000     0.894210000000     0.137870000000     0.0314359  
H489     H      0.100680000000     0.712120000000     0.141910000000     0.0486923  
H490     H      0.985900000000     0.833650000000     0.110580000000     0.0491999  
H491     H      0.118720000000     0.647760000000     0.114830000000     0.0315232  
H492     H      0.999830000000     0.859910000000     0.162750000000     0.0221446  
H493     H      0.985480000000     0.711510000000     0.142700000000     0.0488036  
H494     H      0.096720000000     0.833790000000     0.109170000000     0.0484202  
H495     H      0.965750000000     0.891730000000     0.141010000000     0.0312854  
H496     H      0.998070000000     0.675120000000     0.092030000000     0.022593   
H497     H      0.968030000000     0.295660000000     0.161810000000     0.0406456  
H498     H      0.072580000000     0.225980000000     0.087230000000     0.0223271  
H499     H      0.089610000000     0.334090000000     0.190650000000     0.0218389  
H500     H      0.116400000000     0.293460000000     0.156750000000     0.0403095  
H501     H      0.111610000000     0.258670000000     0.120420000000     0.0404433  
H502     H      0.961380000000     0.259330000000     0.126270000000     0.0406531  
H503     H      0.970150000000     0.380730000000     0.178790000000     0.0302899  
H504     H      0.108450000000     0.178670000000     0.099590000000     0.0309789  
H505     H      0.099420000000     0.341660000000     0.136970000000     0.0489784  
H506     H      0.981720000000     0.209630000000     0.144230000000     0.0495638  
H507     H      0.121360000000     0.378520000000     0.173710000000     0.0307402  
H508     H      0.987040000000     0.224550000000     0.090720000000     0.0222908  
H509     H      0.980770000000     0.343270000000     0.140920000000     0.0504611  
H510     H      0.096430000000     0.208500000000     0.139350000000     0.049432   
H511     H      0.957210000000     0.177370000000     0.106700000000     0.0309296  
H512     H      0.004860000000     0.335270000000     0.193410000000     0.0213665  
N1       N      0.828510000000     0.532080000000     0.638470000000    -0.189377   
N2       N      0.620330000000     0.516580000000     0.707250000000    -0.189685   
N3       N      0.351020000000     0.521900000000     0.675970000000    -0.18829    
N4       N      0.097330000000     0.524060000000     0.670490000000    -0.188487   
N5       N      0.625810000000     0.052070000000     0.608880000000    -0.1894     
N6       N      0.870080000000     0.052810000000     0.637830000000    -0.189071   
N7       N      0.143790000000     0.059670000000     0.618720000000    -0.18936    
N8       N      0.373240000000     0.049580000000     0.664910000000    -0.190004   
N9       N      0.512420000000     0.571570000000     0.511300000000    -0.1888     
N10      N      0.512650000000     0.537460000000     0.626960000000    -0.188858   
N11      N      0.444190000000     0.051830000000     0.574400000000    -0.189582   
N12      N      0.538840000000     0.055830000000     0.458920000000    -0.189034   
N13      N      0.989980000000     0.562430000000     0.586300000000    -0.187934   
N14      N      0.015190000000     0.598010000000     0.466240000000    -0.188061   
N15      N      0.663560000000     0.599150000000     0.453420000000    -0.189643   
N16      N      0.881280000000     0.621690000000     0.392760000000    -0.18983    
N17      N      0.155130000000     0.587870000000     0.401190000000    -0.189559   
N18      N      0.390340000000     0.586990000000     0.433150000000    -0.188922   
N19      N      0.974800000000     0.067170000000     0.434390000000    -0.188596   
N20      N      0.996190000000     0.061720000000     0.559010000000    -0.188313   
N21      N      0.906900000000     0.063830000000     0.344610000000    -0.189766   
N22      N      0.675740000000     0.070960000000     0.392090000000    -0.189285   
N23      N      0.399760000000     0.051060000000     0.391450000000    -0.188116   
N24      N      0.162540000000     0.046210000000     0.396490000000    -0.18774    
N25      N      0.547980000000     0.542590000000     0.874060000000    -0.189878   
N26      N      0.459280000000     0.499850000000     0.760830000000    -0.189616   
N27      N      0.549840000000     0.048150000000     0.701680000000    -0.18871    
N28      N      0.576430000000     0.029040000000     0.821030000000    -0.188768   
N29      N      0.564640000000     0.859860000000     0.876480000000    -0.189478   
N30      N      0.561210000000     0.656380000000     0.952010000000    -0.189467   
N31      N      0.559820000000     0.138340000000     0.900930000000    -0.188402   
N32      N      0.554470000000     0.377140000000     0.929950000000    -0.18843    
N33      N      0.010780000000     0.499590000000     0.835740000000    -0.189634   
N34      N      0.936420000000     0.495740000000     0.717640000000    -0.189642   
N35      N      0.017150000000     0.989400000000     0.813820000000    -0.188969   
N36      N      0.025160000000     0.051080000000     0.695990000000    -0.188977   
N37      N      0.013430000000     0.809920000000     0.854180000000    -0.190143   
N38      N      0.032570000000     0.594500000000     0.919650000000    -0.189952   
N39      N      0.029170000000     0.072080000000     0.905150000000    -0.189382   
N40      N      0.020060000000     0.323780000000     0.880400000000    -0.189407   
N41      N      0.568960000000     0.603990000000     0.257860000000    -0.189584   
N42      N      0.539190000000     0.614980000000     0.375960000000    -0.189825   
N43      N      0.565530000000     0.489730000000     0.009070000000    -0.189259   
N44      N      0.558670000000     0.607090000000     0.120230000000    -0.18945    
N45      N      0.542120000000     0.069490000000     0.321140000000    -0.188317   
N46      N      0.535020000000     0.070360000000     0.196500000000    -0.188431   
N47      N      0.553590000000     0.111550000000     0.060330000000    -0.189347   
N48      N      0.551130000000     0.972920000000     0.955500000000    -0.189737   
N49      N      0.553800000000     0.745630000000     0.189880000000    -0.189663   
N50      N      0.533700000000     0.953220000000     0.117890000000    -0.190061   
N51      N      0.571840000000     0.463470000000     0.191280000000    -0.189246   
N52      N      0.558120000000     0.232340000000     0.136130000000    -0.188921   
N53      N      0.038530000000     0.568470000000     0.210600000000    -0.188418   
N54      N      0.020570000000     0.612480000000     0.328490000000    -0.188972   
N55      N      0.042290000000     0.421700000000     0.967280000000    -0.188245   
N56      N      0.049060000000     0.451950000000     0.085160000000    -0.188618   
N57      N      0.039390000000     0.068510000000     0.187130000000    -0.1896     
N58      N      0.084630000000     0.041520000000     0.308520000000    -0.189261   
N59      N      0.034620000000     0.003460000000     0.053030000000    -0.188757   
N60      N      0.025490000000     0.888220000000     0.942410000000    -0.189646   
N61      N      0.041780000000     0.897610000000     0.137970000000    -0.189154   
N62      N      0.042620000000     0.643510000000     0.117660000000    -0.189074   
N63      N      0.033260000000     0.172280000000     0.105270000000    -0.189707   
N64      N      0.045440000000     0.384930000000     0.173440000000    -0.189888   
O1       O      0.079110000000     0.969060000000     0.128440000000    -0.557678   
O2       O      0.074740000000     0.102030000000     0.111310000000    -0.56015    
O3       O      0.078010000000     0.054010000000     0.152190000000    -0.557202   
O4       O      0.075680000000     0.018190000000     0.087350000000    -0.557745   
O5       O      0.996680000000     0.018340000000     0.088140000000    -0.561107   
O6       O      0.999210000000     0.047580000000     0.153560000000    -0.562029   
O7       O      0.995840000000     0.100390000000     0.113640000000    -0.559565   
O8       O      0.000150000000     0.966150000000     0.128230000000    -0.560976   
O9       O      0.007080000000     0.486400000000     0.115600000000    -0.560583   
O10      O      0.002020000000     0.540780000000     0.177070000000    -0.561491   
O11      O      0.003840000000     0.577220000000     0.132800000000    -0.559596   
O12      O      0.005210000000     0.451190000000     0.159650000000    -0.561672   
O13      O      0.084160000000     0.453810000000     0.161450000000    -0.558255   
O14      O      0.082850000000     0.578560000000     0.133110000000    -0.55858    
O15      O      0.080940000000     0.545750000000     0.177780000000    -0.556162   
O16      O      0.086030000000     0.486750000000     0.117120000000    -0.557495   
O17      O      0.499870000000     0.028180000000     0.123370000000    -0.557622   
O18      O      0.512150000000     0.164320000000     0.131660000000    -0.559502   
O19      O      0.509990000000     0.104680000000     0.094340000000    -0.560295   
O20      O      0.501600000000     0.088460000000     0.160720000000    -0.561137   
O21      O      0.579730000000     0.076790000000     0.162630000000    -0.554715   
O22      O      0.588750000000     0.099130000000     0.096410000000    -0.557564   
O23      O      0.590500000000     0.156030000000     0.134750000000    -0.559056   
O24      O      0.578620000000     0.021050000000     0.123850000000    -0.562248   
O25      O      0.600480000000     0.606730000000     0.154940000000    -0.561357   
O26      O      0.605350000000     0.609010000000     0.221840000000    -0.560974   
O27      O      0.607300000000     0.538480000000     0.188870000000    -0.55599    
O28      O      0.598070000000     0.676010000000     0.188060000000    -0.559401   
O29      O      0.519380000000     0.670320000000     0.190500000000    -0.561202   
O30      O      0.528430000000     0.533370000000     0.189490000000    -0.563531   
O31      O      0.526780000000     0.600100000000     0.223350000000    -0.56034    
O32      O      0.521590000000     0.602800000000     0.156300000000    -0.559261   
O33      O      0.062820000000     0.915280000000     0.908910000000    -0.560596   
O34      O      0.058610000000     0.963560000000     0.846210000000    -0.56098    
O35      O      0.064520000000     0.004220000000     0.889550000000    -0.559021   
O36      O      0.056860000000     0.875890000000     0.865690000000    -0.561563   
O37      O      0.977930000000     0.880000000000     0.866940000000    -0.559159   
O38      O      0.985760000000     0.006840000000     0.892540000000    -0.560165   
O39      O      0.979950000000     0.970350000000     0.848660000000    -0.556657   
O40      O      0.983860000000     0.917070000000     0.910570000000    -0.558963   
O41      O      0.073390000000     0.439960000000     0.930840000000    -0.559463   
O42      O      0.057860000000     0.475670000000     0.866540000000    -0.560141   
O43      O      0.068590000000     0.524270000000     0.907480000000    -0.560199   
O44      O      0.062700000000     0.391800000000     0.889790000000    -0.561188   
O45      O      0.984030000000     0.393550000000     0.893400000000    -0.558449   
O46      O      0.990500000000     0.524570000000     0.913640000000    -0.560599   
O47      O      0.979670000000     0.480850000000     0.871980000000    -0.559102   
O48      O      0.994880000000     0.438260000000     0.935300000000    -0.559092   
O49      O      0.603370000000     0.931360000000     0.883850000000    -0.558648   
O50      O      0.601170000000     0.067020000000     0.895860000000    -0.555811   
O51      O      0.596440000000     0.986520000000     0.922610000000    -0.561262   
O52      O      0.608710000000     0.010880000000     0.857010000000    -0.560775   
O53      O      0.529970000000     0.014160000000     0.853540000000    -0.556378   
O54      O      0.517710000000     0.985940000000     0.919050000000    -0.55805    
O55      O      0.522390000000     0.066600000000     0.892890000000    -0.562873   
O56      O      0.524750000000     0.932010000000     0.879730000000    -0.56018    
O57      O      0.519960000000     0.584950000000     0.949220000000    -0.559172   
O58      O      0.516330000000     0.449790000000     0.936250000000    -0.557483   
O59      O      0.522100000000     0.503620000000     0.975550000000    -0.561831   
O60      O      0.513710000000     0.531810000000     0.910210000000    -0.56271    
O61      O      0.592370000000     0.525870000000     0.906990000000    -0.556766   
O62      O      0.601000000000     0.505250000000     0.973320000000    -0.557438   
O63      O      0.595300000000     0.448140000000     0.935130000000    -0.561441   
O64      O      0.598620000000     0.583880000000     0.945290000000    -0.559633   
O65      O      0.967820000000     0.019370000000     0.360300000000    -0.561259   
O66      O      0.091980000000     0.010530000000     0.385850000000    -0.558372   
O67      O      0.003900000000     0.020890000000     0.404030000000    -0.562837   
O68      O      0.054380000000     0.008740000000     0.342380000000    -0.564602   
O69      O      0.064170000000     0.088880000000     0.340370000000    -0.554282   
O70      O      0.010120000000     0.101330000000     0.401750000000    -0.55533    
O71      O      0.098490000000     0.091060000000     0.384460000000    -0.558572   
O72      O      0.975590000000     0.099640000000     0.357560000000    -0.557347   
O73      O      0.956060000000     0.653720000000     0.396980000000    -0.555631   
O74      O      0.089740000000     0.637270000000     0.399500000000    -0.557964   
O75      O      0.026510000000     0.648780000000     0.364800000000    -0.5564     
O76      O      0.020310000000     0.642130000000     0.431830000000    -0.556      
O77      O      0.010440000000     0.562070000000     0.429700000000    -0.560888   
O78      O      0.015600000000     0.568730000000     0.362790000000    -0.560901   
O79      O      0.080050000000     0.557070000000     0.397810000000    -0.562159   
O80      O      0.947020000000     0.573520000000     0.394680000000    -0.564898   
O81      O      0.533760000000     0.105200000000     0.357430000000    -0.560145   
O82      O      0.535910000000     0.099020000000     0.424330000000    -0.5603     
O83      O      0.602230000000     0.106910000000     0.390600000000    -0.556407   
O84      O      0.467780000000     0.096920000000     0.391260000000    -0.557639   
O85      O      0.473620000000     0.016550000000     0.388310000000    -0.558577   
O86      O      0.607530000000     0.026270000000     0.390270000000    -0.561774   
O87      O      0.538980000000     0.018330000000     0.422660000000    -0.557092   
O88      O      0.543260000000     0.025020000000     0.355520000000    -0.554943   
O89      O      0.516020000000     0.622740000000     0.479370000000    -0.559766   
O90      O      0.533580000000     0.644230000000     0.413720000000    -0.558553   
O91      O      0.457680000000     0.630360000000     0.442010000000    -0.556208   
O92      O      0.591030000000     0.636440000000     0.451220000000    -0.558278   
O93      O      0.595820000000     0.556830000000     0.444760000000    -0.563187   
O94      O      0.462840000000     0.550500000000     0.436440000000    -0.565428   
O95      O      0.535720000000     0.564240000000     0.407790000000    -0.564801   
O96      O      0.521800000000     0.543020000000     0.473520000000    -0.563801   
O97      O      0.000020000000     0.099390000000     0.595200000000    -0.55792    
O98      O      0.011800000000     0.093900000000     0.661990000000    -0.559062   
O99      O      0.073030000000     0.098110000000     0.625560000000    -0.557899   
O100     O      0.939120000000     0.094990000000     0.631900000000    -0.559392   
O101     O      0.941240000000     0.014190000000     0.631980000000    -0.558993   
O102     O      0.074000000000     0.017630000000     0.621660000000    -0.561337   
O103     O      0.018580000000     0.013410000000     0.660000000000    -0.557819   
O104     O      0.997960000000     0.018670000000     0.593740000000    -0.558939   
O105     O      0.978610000000     0.506120000000     0.615690000000    -0.55928    
O106     O      0.952580000000     0.473780000000     0.679520000000    -0.561389   
O107     O      0.899250000000     0.491200000000     0.641030000000    -0.558363   
O108     O      0.031030000000     0.488540000000     0.654610000000    -0.559612   
O109     O      0.028210000000     0.566630000000     0.664640000000    -0.55689    
O110     O      0.897350000000     0.570340000000     0.649060000000    -0.559361   
O111     O      0.946780000000     0.552360000000     0.688430000000    -0.557086   
O112     O      0.977800000000     0.584630000000     0.624990000000    -0.557294   
O113     O      0.528420000000     0.008920000000     0.667650000000    -0.558057   
O114     O      0.472470000000     0.010600000000     0.606650000000    -0.559021   
O115     O      0.561490000000     0.010610000000     0.623240000000    -0.558536   
O116     O      0.438900000000     0.009230000000     0.651080000000    -0.556934   
O117     O      0.437900000000     0.090090000000     0.650720000000    -0.564075   
O118     O      0.561670000000     0.091380000000     0.624810000000    -0.561175   
O119     O      0.473650000000     0.091440000000     0.606880000000    -0.560387   
O120     O      0.524660000000     0.089700000000     0.668940000000    -0.560054   
O121     O      0.419360000000     0.479650000000     0.684290000000    -0.557229   
O122     O      0.551190000000     0.477560000000     0.697830000000    -0.560337   
O123     O      0.472790000000     0.469350000000     0.723820000000    -0.560486   
O124     O      0.498750000000     0.487720000000     0.658700000000    -0.56117    
O125     O      0.499040000000     0.567800000000     0.664100000000    -0.561116   
O126     O      0.468590000000     0.549510000000     0.728760000000    -0.560178   
O127     O      0.549740000000     0.557450000000     0.703850000000    -0.558831   
O128     O      0.418660000000     0.559940000000     0.688740000000    -0.559642   
V1       V      0.080070000000     0.035770000000     0.119770000000     1.38374    
V2       V      0.994820000000     0.033040000000     0.120890000000     1.39541    
V3       V      0.001400000000     0.514020000000     0.146210000000     1.39515    
V4       V      0.086660000000     0.516430000000     0.147440000000     1.38221    
V5       V      0.502760000000     0.096690000000     0.127470000000     1.39044    
V6       V      0.587550000000     0.088020000000     0.129570000000     1.38553    
V7       V      0.605970000000     0.607660000000     0.188330000000     1.38784    
V8       V      0.520900000000     0.601490000000     0.189920000000     1.39492    
V9       V      0.063860000000     0.939760000000     0.877540000000     1.39335    
V10      V      0.978700000000     0.943750000000     0.879720000000     1.38577    
V11      V      0.068780000000     0.457870000000     0.898500000000     1.39227    
V12      V      0.984120000000     0.459210000000     0.903780000000     1.38834    
V13      V      0.605560000000     0.999020000000     0.889970000000     1.3873     
V14      V      0.520570000000     0.999540000000     0.886110000000     1.3894     
V15      V      0.514870000000     0.517520000000     0.942930000000     1.39283    
V16      V      0.600000000000     0.515830000000     0.940090000000     1.38639    
V17      V      0.029330000000     0.011720000000     0.373330000000     1.39966    
V18      V      0.037400000000     0.098470000000     0.370980000000     1.3774     
V19      V      0.023440000000     0.648720000000     0.398380000000     1.37662    
V20      V      0.013010000000     0.562180000000     0.396170000000     1.40213    
V21      V      0.534670000000     0.105230000000     0.390940000000     1.38751    
V22      V      0.540940000000     0.018320000000     0.389050000000     1.3865     
V23      V      0.524310000000     0.636670000000     0.446800000000     1.38138    
V24      V      0.529360000000     0.550500000000     0.440420000000     1.40685    
V25      V      0.005890000000     0.099850000000     0.628700000000     1.38618    
V26      V      0.007840000000     0.012730000000     0.626800000000     1.39032    
V27      V      0.965440000000     0.486830000000     0.647260000000     1.39138    
V28      V      0.962570000000     0.571660000000     0.657110000000     1.38325    
V29      V      0.500350000000     0.006580000000     0.637140000000     1.38371    
V30      V      0.499630000000     0.093870000000     0.637840000000     1.39649    
V31      V      0.485420000000     0.475350000000     0.691000000000     1.39012    
V32      V      0.483980000000     0.561850000000     0.696640000000     1.39082    


