data_structure

_audit_creation_method RASPA-1.0
_audit_creation_date 2023-5-22
_audit_author_name 'Poobodin Mano'

_cell_length_a    39.9424
_cell_length_b    42.9906
_cell_length_c    39.5766
_cell_angle_alpha 89.9992
_cell_angle_beta  90.0001
_cell_angle_gamma 89.9979
_cell_volume      67958.9

_symmetry_cell_setting          triclinic
_symmetry_space_group_name_Hall 'P 1'
_symmetry_space_group_name_H-M  'P 1'
_symmetry_Int_Tables_number     1

_symmetry_equiv_pos_as_xyz 'x,y,z'

loop_
_atom_site_label
_atom_site_type_symbol
_atom_site_fract_x
_atom_site_fract_y
_atom_site_fract_z
_atom_site_charge
C1       C      0.561920000000     0.286270000000     0.029850000000     0.473603   
C2       C      0.460730000000     0.257280000000     0.959680000000     0.47548    
C3       C      0.546630000000     0.272080000000     0.940470000000     0.473941   
C4       C      0.475890000000     0.271580000000     0.046630000000     0.476004   
C5       C      0.278720000000     0.540630000000     0.065880000000     0.473891   
C6       C      0.271820000000     0.611530000000     0.963780000000     0.474914   
C7       C      0.275140000000     0.529080000000     0.975770000000     0.473045   
C8       C      0.276050000000     0.623650000000     0.052440000000     0.473838   
C9       C      0.573860000000     0.899870000000     0.929230000000     0.474981   
C10      C      0.504830000000     0.888580000000     0.035910000000     0.472456   
C11      C      0.591060000000     0.907540000000     0.018490000000     0.47481    
C12      C      0.489440000000     0.882050000000     0.947090000000     0.474302   
C13      C      0.781930000000     0.627120000000     0.977780000000     0.474286   
C14      C      0.784070000000     0.535770000000     0.058830000000     0.474015   
C15      C      0.780600000000     0.617710000000     0.068360000000     0.475412   
C16      C      0.785430000000     0.543480000000     0.969210000000     0.475724   
C17      C      0.285790000000     0.023240000000     0.550510000000     0.474915   
C18      C      0.290690000000     0.119490000000     0.476500000000     0.473054   
C19      C      0.288080000000     0.037410000000     0.461210000000     0.474243   
C20      C      0.288090000000     0.104850000000     0.566410000000     0.474246   
C21      C      0.965840000000     0.791610000000     0.447130000000     0.474058   
C22      C      0.071010000000     0.794240000000     0.518530000000     0.476074   
C23      C      0.984570000000     0.780900000000     0.535600000000     0.473063   
C24      C      0.054050000000     0.804540000000     0.431600000000     0.472628   
C25      C      0.754370000000     0.123250000000     0.465770000000     0.473829   
C26      C      0.758640000000     0.042680000000     0.559260000000     0.474942   
C27      C      0.751900000000     0.125320000000     0.556840000000     0.474326   
C28      C      0.761650000000     0.040260000000     0.468530000000     0.474453   
C29      C      0.988820000000     0.386410000000     0.550440000000     0.474008   
C30      C      0.068930000000     0.392610000000     0.451530000000     0.473867   
C31      C      0.981100000000     0.381710000000     0.460090000000     0.474274   
C32      C      0.077550000000     0.397620000000     0.541330000000     0.474749   
C33      C      0.308750000000     0.284240000000     0.308340000000     0.474585   
C34      C      0.285400000000     0.384240000000     0.244540000000     0.474846   
C35      C      0.253170000000     0.348350000000     0.319680000000     0.475231   
C36      C      0.341000000000     0.320350000000     0.232770000000     0.476177   
C37      C      0.743900000000     0.273730000000     0.284120000000     0.475572   
C38      C      0.780250000000     0.375830000000     0.231730000000     0.476205   
C39      C      0.801200000000     0.333510000000     0.306940000000     0.474539   
C40      C      0.722120000000     0.315950000000     0.208640000000     0.474314   
C41      C      0.715530000000     0.320760000000     0.783220000000     0.473296   
C42      C      0.815640000000     0.366260000000     0.721960000000     0.475622   
C43      C      0.769080000000     0.386200000000     0.796160000000     0.474911   
C44      C      0.761910000000     0.300960000000     0.708140000000     0.473784   
C45      C      0.734070000000     0.877630000000     0.198500000000     0.474917   
C46      C      0.795110000000     0.819370000000     0.291060000000     0.47571    
C47      C      0.765170000000     0.800880000000     0.208040000000     0.47467    
C48      C      0.763790000000     0.897440000000     0.281620000000     0.474851   
C49      C      0.784170000000     0.860990000000     0.700600000000     0.474972   
C50      C      0.788140000000     0.777060000000     0.790610000000     0.472793   
C51      C      0.833330000000     0.793270000000     0.713010000000     0.472652   
C52      C      0.739220000000     0.845720000000     0.777520000000     0.474004   
C53      C      0.293000000000     0.900310000000     0.272820000000     0.474644   
C54      C      0.275210000000     0.800980000000     0.205980000000     0.474373   
C55      C      0.231020000000     0.839630000000     0.272450000000     0.473559   
C56      C      0.336880000000     0.862340000000     0.205980000000     0.473319   
C57      C      0.275050000000     0.865880000000     0.724940000000     0.474108   
C58      C      0.249700000000     0.765480000000     0.786980000000     0.477201   
C59      C      0.219000000000     0.802640000000     0.711770000000     0.475621   
C60      C      0.305490000000     0.828460000000     0.801060000000     0.475344   
C61      C      0.264090000000     0.374600000000     0.794250000000     0.474028   
C62      C      0.271060000000     0.280890000000     0.716580000000     0.473738   
C63      C      0.304850000000     0.300450000000     0.798040000000     0.47495    
C64      C      0.230530000000     0.354570000000     0.712660000000     0.47484    
C65      C      0.104580000000     0.428350000000     0.586150000000     0.0189174  
C66      C      0.222090000000     0.368360000000     0.653090000000     0.0168144  
C67      C      0.175400000000     0.375450000000     0.696230000000     0.017712   
C68      C      0.210260000000     0.397630000000     0.634830000000    -0.103172   
C69      C      0.116370000000     0.417160000000     0.620880000000    -0.104189   
C70      C      0.164900000000     0.405840000000     0.678720000000    -0.104314   
C71      C      0.149580000000     0.400540000000     0.617470000000     0.0190593  
C72      C      0.173580000000     0.403270000000     0.641670000000     0.0183532  
C73      C      0.135380000000     0.384470000000     0.557500000000     0.0171817  
C74      C      0.151100000000     0.374800000000     0.591190000000    -0.10246    
C75      C      0.198620000000     0.335770000000     0.343740000000     0.0200858  
C76      C      0.112290000000     0.421170000000     0.420070000000     0.0141411  
C77      C      0.095110000000     0.364450000000     0.405250000000     0.0200073  
C78      C      0.131290000000     0.422440000000     0.386010000000    -0.103567   
C79      C      0.177200000000     0.342670000000     0.374600000000    -0.105646   
C80      C      0.108240000000     0.370830000000     0.370000000000    -0.10578    
C81      C      0.170830000000     0.377380000000     0.375640000000     0.0208403  
C82      C      0.139390000000     0.389940000000     0.374150000000     0.0206647  
C83      C      0.234490000000     0.379190000000     0.369270000000     0.0165728  
C84      C      0.201980000000     0.397710000000     0.376270000000    -0.103826   
C85      C      0.852060000000     0.317970000000     0.338550000000     0.0172883  
C86      C      0.934900000000     0.403480000000     0.425580000000     0.0164739  
C87      C      0.953030000000     0.347470000000     0.418680000000     0.0177069  
C88      C      0.897950000000     0.393680000000     0.422810000000    -0.103762   
C89      C      0.882490000000     0.337940000000     0.347070000000    -0.103057   
C90      C      0.916540000000     0.337320000000     0.417060000000    -0.103416   
C91      C      0.874580000000     0.359940000000     0.375980000000     0.0181961  
C92      C      0.895210000000     0.363480000000     0.403200000000     0.0183652  
C93      C      0.813650000000     0.359450000000     0.361440000000     0.016855   
C94      C      0.843790000000     0.379970000000     0.370650000000    -0.103663   
C95      C      0.962490000000     0.354990000000     0.595150000000     0.0181747  
C96      C      0.839270000000     0.400610000000     0.677470000000     0.0177739  
C97      C      0.877270000000     0.369320000000     0.714200000000     0.0173226  
C98      C      0.854730000000     0.386780000000     0.645490000000    -0.102316   
C99      C      0.947380000000     0.359740000000     0.630420000000    -0.104155   
C100     C      0.894600000000     0.354880000000     0.683390000000    -0.102099   
C101     C      0.915390000000     0.378880000000     0.628900000000     0.017299   
C102     C      0.890240000000     0.375140000000     0.652080000000     0.0162703  
C103     C      0.947240000000     0.412070000000     0.587120000000     0.0182427  
C104     C      0.912760000000     0.402790000000     0.600770000000    -0.103841   
C105     C      0.786460000000     0.253880000000     0.681940000000     0.0170779  
C106     C      0.716840000000     0.160780000000     0.591330000000     0.0164567  
C107     C      0.778610000000     0.154890000000     0.603200000000     0.0175789  
C108     C      0.719390000000     0.196150000000     0.596680000000    -0.103576   
C109     C      0.770350000000     0.222180000000     0.676020000000    -0.103128   
C110     C      0.781970000000     0.189980000000     0.607360000000    -0.103265   
C111     C      0.746860000000     0.223640000000     0.645990000000     0.0181344  
C112     C      0.749070000000     0.203830000000     0.619100000000     0.0183044  
C113     C      0.736120000000     0.280160000000     0.655840000000     0.0164106  
C114     C      0.719940000000     0.248350000000     0.648910000000    -0.103685   
C115     C      0.754800000000     0.217730000000     0.295160000000     0.0168388  
C116     C      0.720030000000     0.155020000000     0.427450000000     0.0186251  
C117     C      0.783740000000     0.156950000000     0.424760000000     0.0177766  
C118     C      0.721760000000     0.187270000000     0.411100000000    -0.104268   
C119     C      0.771760000000     0.208880000000     0.328650000000    -0.101566   
C120     C      0.778100000000     0.166510000000     0.387810000000    -0.103889   
C121     C      0.747160000000     0.209900000000     0.358190000000     0.0157169  
C122     C      0.748930000000     0.189050000000     0.384320000000     0.0174165  
C123     C      0.708670000000     0.245010000000     0.325240000000     0.018373   
C124     C      0.724430000000     0.238460000000     0.359680000000    -0.102046   
C125     C      0.734470000000     0.000760000000     0.431990000000     0.0173365  
C126     C      0.791070000000     0.945990000000     0.301970000000     0.015905   
C127     C      0.732650000000     0.932340000000     0.320280000000     0.0178477  
C128     C      0.800410000000     0.954670000000     0.338560000000    -0.102893   
C129     C      0.734970000000     0.000710000000     0.393460000000    -0.102865   
C130     C      0.741900000000     0.937840000000     0.357110000000    -0.102935   
C131     C      0.767710000000     0.986980000000     0.380970000000     0.0175602  
C132     C      0.769380000000     0.962140000000     0.359390000000     0.0176546  
C133     C      0.797300000000     0.006010000000     0.432940000000     0.0160189  
C134     C      0.798520000000     0.003780000000     0.394140000000    -0.10297    
C135     C      0.728990000000     0.005130000000     0.596250000000     0.0171109  
C136     C      0.809430000000     0.907730000000     0.674150000000     0.0174967  
C137     C      0.759400000000     0.881830000000     0.647780000000     0.016834   
C138     C      0.792960000000     0.939550000000     0.670180000000    -0.102998   
C139     C      0.734830000000     0.969890000000     0.598080000000    -0.103326   
C140     C      0.742350000000     0.913480000000     0.642600000000    -0.103223   
C141     C      0.766620000000     0.962780000000     0.617710000000     0.0176254  
C142     C      0.768270000000     0.939320000000     0.640980000000     0.017674   
C143     C      0.790400000000     0.015350000000     0.604290000000     0.0174948  
C144     C      0.797400000000     0.980460000000     0.605770000000    -0.103062   
C145     C      0.200590000000     0.807060000000     0.313940000000     0.0166498  
C146     C      0.078870000000     0.842900000000     0.392410000000     0.0162858  
C147     C      0.102450000000     0.788080000000     0.397610000000     0.0169168  
C148     C      0.088510000000     0.843290000000     0.354760000000    -0.104134   
C149     C      0.180720000000     0.815890000000     0.345510000000    -0.103047   
C150     C      0.110940000000     0.788520000000     0.360110000000    -0.103768   
C151     C      0.147690000000     0.830970000000     0.336070000000     0.0186296  
C152     C      0.117660000000     0.821460000000     0.348890000000     0.0190047  
C153     C      0.170520000000     0.848980000000     0.280940000000     0.0170573  
C154     C      0.150870000000     0.858570000000     0.312590000000    -0.104088   
C155     C      0.161770000000     0.809680000000     0.689680000000     0.0187885  
C156     C      0.119390000000     0.767370000000     0.545320000000     0.0174634  
C157     C      0.111540000000     0.824550000000     0.552620000000     0.0179317  
C158     C      0.120870000000     0.762530000000     0.583640000000    -0.102307   
C159     C      0.149750000000     0.819650000000     0.654690000000    -0.103817   
C160     C      0.111410000000     0.821590000000     0.591090000000    -0.102007   
C161     C      0.150410000000     0.792580000000     0.630020000000     0.0174226  
C162     C      0.130280000000     0.792490000000     0.602070000000     0.0162724  
C163     C      0.204630000000     0.776720000000     0.658250000000     0.0182006  
C164     C      0.173860000000     0.765740000000     0.638170000000    -0.104262   
C165     C      0.891510000000     0.797570000000     0.693730000000     0.0169897  
C166     C      0.955420000000     0.742970000000     0.572250000000     0.0170802  
C167     C      0.970130000000     0.796590000000     0.593690000000     0.0172417  
C168     C      0.921690000000     0.744230000000     0.590930000000    -0.104054   
C169     C      0.920170000000     0.776110000000     0.683590000000    -0.10425    
C170     C      0.936800000000     0.798500000000     0.612320000000    -0.103116   
C171     C      0.910990000000     0.759000000000     0.651750000000     0.0192787  
C172     C      0.923750000000     0.766280000000     0.620720000000     0.0192711  
C173     C      0.850720000000     0.758740000000     0.666450000000     0.0161784  
C174     C      0.880780000000     0.738370000000     0.656380000000    -0.104489   
C175     C      0.936070000000     0.770610000000     0.397550000000     0.0165286  
C176     C      0.796780000000     0.798000000000     0.348940000000     0.0182573  
C177     C      0.843000000000     0.786450000000     0.307700000000     0.0181784  
C178     C      0.822230000000     0.807210000000     0.376160000000    -0.103503   
C179     C      0.901230000000     0.756460000000     0.393570000000    -0.102914   
C180     C      0.869520000000     0.792840000000     0.334670000000    -0.102366   
C181     C      0.874780000000     0.781440000000     0.396630000000     0.0180644  
C182     C      0.855310000000     0.790750000000     0.370250000000     0.0185771  
C183     C      0.910970000000     0.814440000000     0.432470000000     0.016901   
C184     C      0.876190000000     0.799350000000     0.429470000000    -0.103959   
C185     C      0.338410000000     0.255950000000     0.354240000000     0.0173223  
C186     C      0.261580000000     0.158360000000     0.441050000000     0.0177572  
C187     C      0.325060000000     0.158570000000     0.447160000000     0.0181522  
C188     C      0.268240000000     0.171550000000     0.405670000000    -0.10364    
C189     C      0.320180000000     0.247020000000     0.386830000000    -0.10219    
C190     C      0.322220000000     0.192130000000     0.434220000000    -0.104104   
C191     C      0.298980000000     0.217860000000     0.381800000000     0.0160671  
C192     C      0.296690000000     0.195060000000     0.405920000000     0.0170989  
C193     C      0.295650000000     0.228580000000     0.319130000000     0.0168705  
C194     C      0.276410000000     0.218160000000     0.350720000000    -0.101871   
C195     C      0.299940000000     0.253610000000     0.669880000000     0.0170296  
C196     C      0.257140000000     0.127580000000     0.614930000000     0.0173332  
C197     C      0.319520000000     0.132080000000     0.611620000000     0.0175084  
C198     C      0.253920000000     0.162070000000     0.623800000000    -0.102591   
C199     C      0.313940000000     0.220470000000     0.668500000000    -0.103481   
C200     C      0.317970000000     0.166740000000     0.620410000000    -0.102708   
C201     C      0.285530000000     0.197420000000     0.663820000000     0.0177217  
C202     C      0.285980000000     0.174840000000     0.639370000000     0.0172088  
C203     C      0.244820000000     0.233590000000     0.692110000000     0.0164061  
C204     C      0.258200000000     0.200270000000     0.690380000000    -0.102972   
C205     C      0.315470000000     0.981580000000     0.581990000000     0.0176734  
C206     C      0.260210000000     0.920490000000     0.712030000000     0.0180199  
C207     C      0.307210000000     0.892710000000     0.680780000000     0.0180875  
C208     C      0.252370000000     0.936080000000     0.678150000000    -0.103434   
C209     C      0.316390000000     0.980610000000     0.620550000000    -0.102858   
C210     C      0.315460000000     0.925520000000     0.667870000000    -0.104019   
C211     C      0.284260000000     0.966290000000     0.634180000000     0.0166794  
C212     C      0.284070000000     0.943680000000     0.658590000000     0.0171743  
C213     C      0.252790000000     0.983880000000     0.582330000000     0.0163786  
C214     C      0.252230000000     0.981320000000     0.621050000000    -0.10239    
C215     C      0.256970000000     0.013090000000     0.413840000000     0.016176   
C216     C      0.325760000000     0.929390000000     0.315590000000     0.0179373  
C217     C      0.278780000000     0.955480000000     0.284430000000     0.0168331  
C218     C      0.312260000000     0.941040000000     0.349340000000    -0.102721   
C219     C      0.263350000000     0.014830000000     0.375540000000    -0.103496   
C220     C      0.264460000000     0.968310000000     0.317680000000    -0.103057   
C221     C      0.293300000000     0.994770000000     0.366640000000     0.0178944  
C222     C      0.291490000000     0.970360000000     0.344610000000     0.0180057  
C223     C      0.318070000000     0.000500000000     0.423900000000     0.0171408  
C224     C      0.324700000000     0.003110000000     0.386060000000    -0.103024   
C225     C      0.819170000000     0.405260000000     0.194730000000     0.0182702  
C226     C      0.753050000000     0.498910000000     0.094890000000     0.0184467  
C227     C      0.816830000000     0.499380000000     0.093670000000     0.0178814  
C228     C      0.757010000000     0.488700000000     0.131670000000    -0.104007   
C229     C      0.807130000000     0.414690000000     0.159560000000    -0.101982   
C230     C      0.813500000000     0.466980000000     0.109700000000    -0.104011   
C231     C      0.785160000000     0.443750000000     0.161020000000     0.0157001  
C232     C      0.785400000000     0.465460000000     0.135630000000     0.0172102  
C233     C      0.771580000000     0.432430000000     0.222510000000     0.0175202  
C234     C      0.758250000000     0.444110000000     0.188480000000    -0.10155    
C235     C      0.793130000000     0.770410000000     0.163210000000     0.0176411  
C236     C      0.747770000000     0.642860000000     0.114150000000     0.0174966  
C237     C      0.810260000000     0.645710000000     0.114110000000     0.0180398  
C238     C      0.745070000000     0.677670000000     0.121820000000    -0.102776   
C239     C      0.805460000000     0.736810000000     0.165050000000    -0.103408   
C240     C      0.809460000000     0.680640000000     0.121160000000    -0.102603   
C241     C      0.776110000000     0.714740000000     0.160510000000     0.0176283  
C242     C      0.776870000000     0.690500000000     0.137990000000     0.0172886  
C243     C      0.736240000000     0.754520000000     0.184370000000     0.0165646  
C244     C      0.747530000000     0.720460000000     0.185200000000    -0.102977   
C245     C      0.812280000000     0.669620000000     0.948410000000     0.0175612  
C246     C      0.766130000000     0.727410000000     0.812650000000     0.0180295  
C247     C      0.809860000000     0.758350000000     0.845310000000     0.0175924  
C248     C      0.755610000000     0.715290000000     0.847480000000    -0.103876   
C249     C      0.816200000000     0.672600000000     0.910180000000    -0.102668   
C250     C      0.817390000000     0.727130000000     0.862600000000    -0.103554   
C251     C      0.784670000000     0.686190000000     0.894450000000     0.0166691  
C252     C      0.785810000000     0.708410000000     0.869590000000     0.0168948  
C253     C      0.749970000000     0.665020000000     0.942910000000     0.0163215  
C254     C      0.752260000000     0.669900000000     0.904510000000    -0.10229    
C255     C      0.768320000000     0.491940000000     0.950000000000     0.0169421  
C256     C      0.769080000000     0.442070000000     0.809550000000     0.0185454  
C257     C      0.766970000000     0.401410000000     0.855960000000     0.0170197  
C258     C      0.793890000000     0.461530000000     0.830250000000    -0.104609   
C259     C      0.756680000000     0.477690000000     0.916650000000    -0.102667   
C260     C      0.789260000000     0.421830000000     0.878140000000    -0.103141   
C261     C      0.783820000000     0.479000000000     0.889980000000     0.0186702  
C262     C      0.787610000000     0.455570000000     0.867310000000     0.0187203  
C263     C      0.813590000000     0.521920000000     0.919250000000     0.019252   
C264     C      0.800270000000     0.510350000000     0.885160000000    -0.104486   
C265     C      0.682570000000     0.901430000000     0.176360000000     0.0181563  
C266     C      0.649700000000     0.896870000000     0.035380000000     0.0166664  
C267     C      0.619070000000     0.943560000000     0.057860000000     0.0186856  
C268     C      0.664990000000     0.890750000000     0.070330000000    -0.102039   
C269     C      0.675100000000     0.930260000000     0.154760000000    -0.104658   
C270     C      0.629720000000     0.935970000000     0.094000000000    -0.103755   
C271     C      0.685570000000     0.923260000000     0.118870000000     0.0187339  
C272     C      0.662760000000     0.918770000000     0.093750000000     0.0184775  
C273     C      0.731720000000     0.888230000000     0.137740000000     0.0164392  
C274     C      0.722300000000     0.915740000000     0.115240000000    -0.103359   
C275     C      0.398030000000     0.855760000000     0.198190000000     0.0166916  
C276     C      0.457710000000     0.907920000000     0.070400000000     0.0166035  
C277     C      0.483690000000     0.854940000000     0.081910000000     0.0160237  
C278     C      0.452790000000     0.912350000000     0.108300000000    -0.103397   
C279     C      0.418370000000     0.846190000000     0.166910000000    -0.103583   
C280     C      0.477530000000     0.859400000000     0.119970000000    -0.103918   
C281     C      0.419370000000     0.872480000000     0.141370000000     0.0183873  
C282     C      0.448120000000     0.881110000000     0.125120000000     0.0184935  
C283     C      0.366000000000     0.895120000000     0.163750000000     0.0170323  
C284     C      0.385320000000     0.885620000000     0.132120000000    -0.103012   
C285     C      0.460240000000     0.845270000000     0.909110000000     0.0170944  
C286     C      0.319320000000     0.854300000000     0.855000000000     0.017713   
C287     C      0.358860000000     0.815060000000     0.829240000000     0.0171392  
C288     C      0.348840000000     0.875040000000     0.865120000000    -0.104163   
C289     C      0.424180000000     0.833510000000     0.909030000000    -0.103446   
C290     C      0.388720000000     0.835100000000     0.839590000000    -0.10327    
C291     C      0.400750000000     0.858810000000     0.896830000000     0.01846    
C292     C      0.380070000000     0.855490000000     0.869630000000     0.0186742  
C293     C      0.439070000000     0.900390000000     0.916860000000     0.0172512  
C294     C      0.402840000000     0.888600000000     0.917140000000    -0.10423    
C295     C      0.720740000000     0.885500000000     0.818950000000     0.0154848  
C296     C      0.587470000000     0.875800000000     0.874600000000     0.0193179  
C297     C      0.605640000000     0.930620000000     0.886970000000     0.017044   
C298     C      0.622240000000     0.867250000000     0.862140000000    -0.102931   
C299     C      0.693250000000     0.910650000000     0.818290000000    -0.103656   
C300     C      0.640970000000     0.923570000000     0.873200000000    -0.103333   
C301     C      0.659470000000     0.894970000000     0.820630000000     0.0181428  
C302     C      0.640430000000     0.895900000000     0.849230000000     0.0189531  
C303     C      0.679580000000     0.846500000000     0.793900000000     0.01686    
C304     C      0.653350000000     0.872190000000     0.792290000000    -0.103383   
C305     C      0.243740000000     0.770790000000     0.162820000000     0.0163608  
C306     C      0.308350000000     0.662480000000     0.084800000000     0.0178582  
C307     C      0.247130000000     0.671130000000     0.072460000000     0.0165377  
C308     C      0.303800000000     0.674800000000     0.120790000000    -0.103715   
C309     C      0.256540000000     0.753220000000     0.131660000000    -0.10252    
C310     C      0.242170000000     0.685030000000     0.107720000000    -0.102864   
C311     C      0.276030000000     0.724060000000     0.141170000000     0.0173521  
C312     C      0.274740000000     0.697480000000     0.122210000000     0.0179835  
C313     C      0.287470000000     0.745000000000     0.198870000000     0.0178194  
C314     C      0.302570000000     0.728800000000     0.168070000000    -0.103199   
C315     C      0.299330000000     0.439390000000     0.231530000000     0.0163173  
C316     C      0.249440000000     0.509940000000     0.109540000000     0.0181378  
C317     C      0.313140000000     0.512050000000     0.107220000000     0.0178229  
C318     C      0.254040000000     0.476940000000     0.123320000000    -0.103616   
C319     C      0.313380000000     0.450640000000     0.197470000000    -0.102119   
C320     C      0.310690000000     0.499630000000     0.143540000000    -0.10406    
C321     C      0.286460000000     0.451090000000     0.170140000000     0.0162497  
C322     C      0.284040000000     0.474530000000     0.146780000000     0.0172265  
C323     C      0.251340000000     0.413190000000     0.202590000000     0.017796   
C324     C      0.265220000000     0.421730000000     0.167900000000    -0.102261   
C325     C      0.242780000000     0.491520000000     0.942030000000     0.0176443  
C326     C      0.284960000000     0.426520000000     0.812580000000     0.0159818  
C327     C      0.235320000000     0.402310000000     0.840930000000     0.0176456  
C328     C      0.300320000000     0.434760000000     0.847100000000    -0.101956   
C329     C      0.246320000000     0.458920000000     0.926570000000    -0.103742   
C330     C      0.250950000000     0.407140000000     0.875700000000    -0.102579   
C331     C      0.274250000000     0.457100000000     0.900470000000     0.017025   
C332     C      0.274120000000     0.435230000000     0.875180000000     0.0163771  
C333     C      0.306550000000     0.491570000000     0.940570000000     0.0176884  
C334     C      0.302710000000     0.480300000000     0.904050000000    -0.103519   
C335     C      0.300040000000     0.642190000000     0.919490000000     0.0181357  
C336     C      0.220550000000     0.737400000000     0.833220000000     0.0176038  
C337     C      0.262810000000     0.709910000000     0.797680000000     0.017378   
C338     C      0.240570000000     0.730540000000     0.865300000000    -0.102143   
C339     C      0.292580000000     0.654810000000     0.883960000000    -0.104275   
C340     C      0.283930000000     0.701560000000     0.828730000000    -0.101977   
C341     C      0.264600000000     0.678830000000     0.884440000000     0.0177355  
C342     C      0.262390000000     0.701700000000     0.860520000000     0.0159827  
C343     C      0.236500000000     0.642430000000     0.925390000000     0.0187261  
C344     C      0.238460000000     0.675750000000     0.912050000000    -0.104199   
C345     C      0.461700000000     0.250490000000     0.102980000000     0.0172398  
C346     C      0.354420000000     0.315210000000     0.172430000000     0.0184578  
C347     C      0.399740000000     0.309240000000     0.216850000000     0.0169491  
C348     C      0.367940000000     0.286960000000     0.153730000000    -0.103405   
C349     C      0.460550000000     0.268970000000     0.136350000000    -0.104232   
C350     C      0.413690000000     0.280620000000     0.198050000000    -0.104203   
C351     C      0.428790000000     0.288190000000     0.137230000000     0.0193274  
C352     C      0.404860000000     0.283310000000     0.160990000000     0.0189753  
C353     C      0.425110000000     0.290930000000     0.074700000000     0.0192887  
C354     C      0.423640000000     0.309560000000     0.107320000000    -0.103552   
C355     C      0.664980000000     0.303890000000     0.189180000000     0.0178882  
C356     C      0.605080000000     0.323550000000     0.048890000000     0.0178747  
C357     C      0.594300000000     0.272880000000     0.080390000000     0.0185913  
C358     C      0.638450000000     0.322700000000     0.068510000000    -0.104036   
C359     C      0.642240000000     0.323620000000     0.166890000000    -0.102822   
C360     C      0.603030000000     0.291860000000     0.111970000000    -0.103894   
C361     C      0.653540000000     0.321980000000     0.130370000000     0.0177146  
C362     C      0.632660000000     0.312960000000     0.104970000000     0.0170568  
C363     C      0.712300000000     0.309790000000     0.147210000000     0.0165645  
C364     C      0.689980000000     0.330240000000     0.124460000000    -0.103375   
C365     C      0.559940000000     0.296900000000     0.885590000000     0.0173219  
C366     C      0.694070000000     0.283600000000     0.825590000000     0.0165142  
C367     C      0.656040000000     0.325030000000     0.800210000000     0.0160547  
C368     C      0.664650000000     0.260710000000     0.826080000000    -0.103999   
C369     C      0.593850000000     0.306340000000     0.871040000000    -0.102942   
C370     C      0.627160000000     0.301700000000     0.801250000000    -0.103153   
C371     C      0.613390000000     0.278180000000     0.858720000000     0.0183905  
C372     C      0.632460000000     0.278950000000     0.829950000000     0.0181039  
C373     C      0.581720000000     0.243560000000     0.899210000000     0.0171905  
C374     C      0.615950000000     0.251680000000     0.884020000000    -0.103318   
C375     C      0.400590000000     0.264900000000     0.948840000000     0.0182941  
C376     C      0.360070000000     0.278840000000     0.813290000000     0.0174296  
C377     C      0.313100000000     0.282820000000     0.856570000000     0.0169247  
C378     C      0.369950000000     0.246920000000     0.827720000000    -0.104008   
C379     C      0.382870000000     0.274020000000     0.916030000000    -0.102124   
C380     C      0.324350000000     0.251910000000     0.871810000000    -0.103052   
C381     C      0.385020000000     0.248790000000     0.889160000000     0.0191238  
C382     C      0.361060000000     0.246520000000     0.864840000000     0.0178993  
C383     C      0.432660000000     0.222780000000     0.918870000000     0.0190319  
C384     C      0.418810000000     0.233270000000     0.884610000000    -0.103986   
H1       H      0.118610000000     0.437950000000     0.637460000000     0.0417731  
H2       H      0.211460000000     0.347770000000     0.639880000000     0.0226879  
H3       H      0.153560000000     0.399660000000     0.544050000000     0.0224241  
H4       H      0.176860000000     0.366410000000     0.586220000000     0.042375   
H5       H      0.216230000000     0.396380000000     0.607470000000     0.0415143  
H6       H      0.137810000000     0.409680000000     0.683410000000     0.0417105  
H7       H      0.079400000000     0.439130000000     0.588940000000     0.0294438  
H8       H      0.249790000000     0.366710000000     0.650950000000     0.0311446  
H9       H      0.136880000000     0.354620000000     0.601280000000     0.0504378  
H10      H      0.178790000000     0.425680000000     0.690030000000     0.0488288  
H11      H      0.131570000000     0.363470000000     0.541530000000     0.0303551  
H12      H      0.159130000000     0.356210000000     0.687060000000     0.026868   
H13      H      0.097530000000     0.401080000000     0.631950000000     0.0493674  
H14      H      0.224610000000     0.417790000000     0.644850000000     0.0493978  
H15      H      0.171260000000     0.377970000000     0.723900000000     0.0290995  
H16      H      0.122160000000     0.446450000000     0.576720000000     0.0255708  
H17      H      0.154770000000     0.327660000000     0.374350000000     0.0420197  
H18      H      0.131080000000     0.421020000000     0.440810000000     0.0249818  
H19      H      0.254600000000     0.395750000000     0.361870000000     0.0307126  
H20      H      0.199620000000     0.415900000000     0.356430000000     0.0475078  
H21      H      0.153660000000     0.437510000000     0.388690000000     0.0413895  
H22      H      0.111640000000     0.349240000000     0.355140000000     0.0415124  
H23      H      0.205360000000     0.310650000000     0.343670000000     0.0253786  
H24      H      0.097720000000     0.443030000000     0.423140000000     0.0316859  
H25      H      0.204160000000     0.409330000000     0.401250000000     0.0423058  
H26      H      0.089110000000     0.384370000000     0.355800000000     0.0493236  
H27      H      0.242650000000     0.367730000000     0.393070000000     0.0247125  
H28      H      0.112960000000     0.349220000000     0.419130000000     0.0283731  
H29      H      0.191100000000     0.335860000000     0.397790000000     0.0490901  
H30      H      0.115010000000     0.433820000000     0.366850000000     0.0458452  
H31      H      0.071140000000     0.351390000000     0.402940000000     0.0279215  
H32      H      0.183840000000     0.340180000000     0.320370000000     0.0304721  
H33      H      0.904510000000     0.322830000000     0.351290000000     0.0414206  
H34      H      0.943630000000     0.411250000000     0.400260000000     0.0256184  
H35      H      0.806300000000     0.345780000000     0.384130000000     0.024514   
H36      H      0.836690000000     0.393080000000     0.393730000000     0.0412595  
H37      H      0.884470000000     0.413190000000     0.410510000000     0.0413682  
H38      H      0.914260000000     0.315060000000     0.403200000000     0.04139    
H39      H      0.857850000000     0.303630000000     0.315930000000     0.0315015  
H40      H      0.936550000000     0.423740000000     0.442970000000     0.0312919  
H41      H      0.848690000000     0.396880000000     0.349990000000     0.048659   
H42      H      0.907890000000     0.332210000000     0.443190000000     0.0505547  
H43      H      0.792300000000     0.374880000000     0.354800000000     0.031892   
H44      H      0.962400000000     0.350530000000     0.392420000000     0.0229141  
H45      H      0.888760000000     0.352270000000     0.324560000000     0.0505551  
H46      H      0.887310000000     0.390330000000     0.448510000000     0.0478928  
H47      H      0.967960000000     0.328520000000     0.430430000000     0.0317033  
H48      H      0.847530000000     0.301730000000     0.359940000000     0.0226203  
H49      H      0.942570000000     0.336150000000     0.640790000000     0.0414761  
H50      H      0.852990000000     0.422370000000     0.683790000000     0.0228266  
H51      H      0.943520000000     0.428490000000     0.565730000000     0.0310848  
H52      H      0.897310000000     0.393150000000     0.579890000000     0.0484626  
H53      H      0.852790000000     0.404380000000     0.625170000000     0.0408341  
H54      H      0.921300000000     0.351900000000     0.690440000000     0.0408578  
H55      H      0.986860000000     0.342700000000     0.597850000000     0.0296264  
H56      H      0.812800000000     0.406970000000     0.672320000000     0.0317935  
H57      H      0.900960000000     0.424520000000     0.610240000000     0.0417492  
H58      H      0.883770000000     0.331520000000     0.678310000000     0.0486432  
H59      H      0.961250000000     0.424780000000     0.607110000000     0.0258329  
H60      H      0.891510000000     0.390460000000     0.721740000000     0.0233583  
H61      H      0.965820000000     0.371750000000     0.646920000000     0.0478273  
H62      H      0.839300000000     0.366620000000     0.637320000000     0.050547   
H63      H      0.878490000000     0.352640000000     0.735610000000     0.0320555  
H64      H      0.945810000000     0.339590000000     0.580100000000     0.0274347  
H65      H      0.789830000000     0.203940000000     0.674350000000     0.0413138  
H66      H      0.708480000000     0.149900000000     0.615400000000     0.0251141  
H67      H      0.749350000000     0.287900000000     0.632580000000     0.0248543  
H68      H      0.704940000000     0.250910000000     0.625490000000     0.0411425  
H69      H      0.695230000000     0.203640000000     0.607890000000     0.0411124  
H70      H      0.803700000000     0.195360000000     0.623680000000     0.0415094  
H71      H      0.802100000000     0.252640000000     0.705120000000     0.0319531  
H72      H      0.697230000000     0.156230000000     0.572020000000     0.0315358  
H73      H      0.702700000000     0.242220000000     0.669920000000     0.048115   
H74      H      0.788070000000     0.200230000000     0.582310000000     0.0506444  
H75      H      0.715820000000     0.297210000000     0.661010000000     0.0320051  
H76      H      0.774860000000     0.144380000000     0.628610000000     0.023193   
H77      H      0.755280000000     0.216130000000     0.698710000000     0.0500357  
H78      H      0.722480000000     0.207970000000     0.571900000000     0.0480018  
H79      H      0.802510000000     0.145560000000     0.592990000000     0.0319122  
H80      H      0.803470000000     0.258990000000     0.660380000000     0.0231856  
H81      H      0.782560000000     0.185320000000     0.325000000000     0.0408547  
H82      H      0.701120000000     0.155780000000     0.448090000000     0.0300846  
H83      H      0.691220000000     0.225640000000     0.319090000000     0.0225905  
H84      H      0.704010000000     0.236960000000     0.378470000000     0.0407705  
H85      H      0.726580000000     0.205140000000     0.430810000000     0.0481627  
H86      H      0.801790000000     0.177290000000     0.378900000000     0.0414092  
H87      H      0.774140000000     0.219800000000     0.275110000000     0.0319649  
H88      H      0.710980000000     0.137850000000     0.408500000000     0.02682    
H89      H      0.740010000000     0.258780000000     0.367080000000     0.0513306  
H90      H      0.772990000000     0.145450000000     0.372350000000     0.0481204  
H91      H      0.693650000000     0.266740000000     0.326610000000     0.0313393  
H92      H      0.792240000000     0.177530000000     0.439470000000     0.0266504  
H93      H      0.792600000000     0.225330000000     0.333830000000     0.0485264  
H94      H      0.696680000000     0.191360000000     0.399830000000     0.0417303  
H95      H      0.804260000000     0.139470000000     0.425650000000     0.0299201  
H96      H      0.737610000000     0.198510000000     0.287830000000     0.0235595  
H97      H      0.712060000000     0.989620000000     0.383480000000     0.0411366  
H98      H      0.783410000000     0.967580000000     0.288530000000     0.0244242  
H99      H      0.801750000000     0.982390000000     0.443500000000     0.0240465  
H100     H      0.822250000000     0.991770000000     0.387780000000     0.0407792  
H101     H      0.817740000000     0.974750000000     0.336690000000     0.0409929  
H102     H      0.719040000000     0.942900000000     0.371790000000     0.0413548  
H103     H      0.710630000000     0.011410000000     0.440660000000     0.0321136  
H104     H      0.813750000000     0.936820000000     0.289090000000     0.0320443  
H105     H      0.799400000000     0.027540000000     0.383120000000     0.0479678  
H106     H      0.751790000000     0.915740000000     0.367770000000     0.0506507  
H107     H      0.818250000000     0.021080000000     0.441510000000     0.0322802  
H108     H      0.722060000000     0.954230000000     0.309760000000     0.0233928  
H109     H      0.733610000000     0.025230000000     0.384600000000     0.0503991  
H110     H      0.813970000000     0.934990000000     0.350570000000     0.04769    
H111     H      0.712700000000     0.914370000000     0.319090000000     0.0322315  
H112     H      0.734870000000     0.976260000000     0.441040000000     0.0235089  
H113     H      0.712210000000     0.959880000000     0.610220000000     0.0410942  
H114     H      0.825640000000     0.903510000000     0.651760000000     0.0229863  
H115     H      0.786980000000     0.024000000000     0.630550000000     0.023114   
H116     H      0.820320000000     0.976390000000     0.620730000000     0.0411145  
H117     H      0.812580000000     0.957600000000     0.668700000000     0.0410989  
H118     H      0.727630000000     0.911510000000     0.618920000000     0.0411505  
H119     H      0.707170000000     0.009540000000     0.579490000000     0.0321589  
H120     H      0.825900000000     0.908130000000     0.696770000000     0.0316708  
H121     H      0.803420000000     0.972310000000     0.579810000000     0.0503802  
H122     H      0.724810000000     0.918130000000     0.663810000000     0.0481885  
H123     H      0.812610000000     0.027360000000     0.593530000000     0.0316528  
H124     H      0.772960000000     0.875610000000     0.624170000000     0.0244055  
H125     H      0.737030000000     0.960190000000     0.572150000000     0.0485025  
H126     H      0.778740000000     0.944740000000     0.693660000000     0.050323   
H127     H      0.739660000000     0.864010000000     0.651880000000     0.0319962  
H128     H      0.722300000000     0.013610000000     0.621940000000     0.0242774  
H129     H      0.178300000000     0.795410000000     0.362300000000     0.0420109  
H130     H      0.098490000000     0.855440000000     0.406980000000     0.0264043  
H131     H      0.154890000000     0.832680000000     0.265840000000     0.0251919  
H132     H      0.126270000000     0.867360000000     0.303750000000     0.0410265  
H133     H      0.094170000000     0.867770000000     0.348050000000     0.0411576  
H134     H      0.131530000000     0.772050000000     0.354480000000     0.0417966  
H135     H      0.225830000000     0.798860000000     0.321750000000     0.0319874  
H136     H      0.055050000000     0.856010000000     0.395510000000     0.0308636  
H137     H      0.164130000000     0.877770000000     0.325820000000     0.0482405  
H138     H      0.088920000000     0.779670000000     0.345840000000     0.0494507  
H139     H      0.174710000000     0.870160000000     0.265360000000     0.0315651  
H140     H      0.125390000000     0.794030000000     0.412180000000     0.0240651  
H141     H      0.195560000000     0.833190000000     0.360060000000     0.050191   
H142     H      0.066820000000     0.835600000000     0.339270000000     0.0475104  
H143     H      0.095360000000     0.763920000000     0.404610000000     0.0327     
H144     H      0.187740000000     0.787190000000     0.301470000000     0.0234152  
H145     H      0.123860000000     0.828750000000     0.657720000000     0.0412239  
H146     H      0.145390000000     0.770700000000     0.535920000000     0.0229651  
H147     H      0.219170000000     0.756030000000     0.666610000000     0.0286174  
H148     H      0.160040000000     0.747890000000     0.652930000000     0.0477554  
H149     H      0.137820000000     0.742730000000     0.588780000000     0.0409137  
H150     H      0.122800000000     0.843270000000     0.601090000000     0.0409019  
H151     H      0.160850000000     0.830280000000     0.706640000000     0.0309361  
H152     H      0.109230000000     0.746050000000     0.533200000000     0.0316723  
H153     H      0.183710000000     0.754900000000     0.614720000000     0.0420722  
H154     H      0.085180000000     0.820190000000     0.600350000000     0.0487526  
H155     H      0.221300000000     0.790400000000     0.641320000000     0.0286691  
H156     H      0.137690000000     0.828960000000     0.544180000000     0.0236679  
H157     H      0.166090000000     0.838630000000     0.645070000000     0.0487621  
H158     H      0.095640000000     0.755350000000     0.592570000000     0.0499375  
H159     H      0.096290000000     0.845070000000     0.545250000000     0.0321138  
H160     H      0.144300000000     0.791970000000     0.700130000000     0.0255838  
H161     H      0.944140000000     0.789020000000     0.681650000000     0.041365   
H162     H      0.973810000000     0.730390000000     0.588340000000     0.0253124  
H163     H      0.842080000000     0.771770000000     0.643790000000     0.0272076  
H164     H      0.873840000000     0.725030000000     0.633480000000     0.0412642  
H165     H      0.915940000000     0.720070000000     0.598920000000     0.0412811  
H166     H      0.939730000000     0.814010000000     0.634440000000     0.0420454  
H167     H      0.897440000000     0.807390000000     0.719020000000     0.0320999  
H168     H      0.952010000000     0.729290000000     0.548640000000     0.0309177  
H169     H      0.885860000000     0.721240000000     0.676790000000     0.0474829  
H170     H      0.918230000000     0.810000000000     0.595540000000     0.0507685  
H171     H      0.829860000000     0.743150000000     0.674220000000     0.0311133  
H172     H      0.989550000000     0.788430000000     0.611780000000     0.0226425  
H173     H      0.924020000000     0.758830000000     0.704140000000     0.0485455  
H174     H      0.901730000000     0.752250000000     0.573410000000     0.0484612  
H175     H      0.977420000000     0.820390000000     0.585510000000     0.0316843  
H176     H      0.890410000000     0.817410000000     0.675730000000     0.0242062  
H177     H      0.899400000000     0.742880000000     0.369800000000     0.0412819  
H178     H      0.790350000000     0.772990000000     0.352090000000     0.0249956  
H179     H      0.913380000000     0.832810000000     0.412820000000     0.0263862  
H180     H      0.857010000000     0.817940000000     0.431350000000     0.0416314  
H181     H      0.811380000000     0.800740000000     0.401070000000     0.0414054  
H182     H      0.890940000000     0.777020000000     0.330170000000     0.0420251  
H183     H      0.954850000000     0.751550000000     0.398550000000     0.0317825  
H184     H      0.773590000000     0.811940000000     0.352580000000     0.029415   
H185     H      0.872260000000     0.783090000000     0.450950000000     0.0484723  
H186     H      0.879120000000     0.816880000000     0.331030000000     0.0510544  
H187     H      0.912870000000     0.825860000000     0.457630000000     0.0306786  
H188     H      0.837970000000     0.761000000000     0.307450000000     0.0222417  
H189     H      0.897350000000     0.739420000000     0.414350000000     0.0493089  
H190     H      0.826270000000     0.832800000000     0.375630000000     0.0488515  
H191     H      0.853130000000     0.792710000000     0.282410000000     0.0298981  
H192     H      0.941630000000     0.784690000000     0.374660000000     0.0229649  
H193     H      0.338980000000     0.245250000000     0.407270000000     0.0406995  
H194     H      0.252400000000     0.177320000000     0.457790000000     0.0260408  
H195     H      0.313730000000     0.209920000000     0.312280000000     0.0236759  
H196     H      0.265950000000     0.194830000000     0.344960000000     0.0407554  
H197     H      0.244550000000     0.182560000000     0.397050000000     0.0411415  
H198     H      0.314980000000     0.207770000000     0.455350000000     0.0477422  
H199     H      0.351950000000     0.278220000000     0.358220000000     0.0318344  
H200     H      0.241260000000     0.140760000000     0.439170000000     0.0303682  
H201     H      0.255190000000     0.234340000000     0.355330000000     0.0481896  
H202     H      0.347640000000     0.198580000000     0.425280000000     0.0417647  
H203     H      0.277770000000     0.231030000000     0.297790000000     0.0320062  
H204     H      0.342040000000     0.158300000000     0.469450000000     0.0292789  
H205     H      0.303150000000     0.266370000000     0.394010000000     0.0503422  
H206     H      0.274640000000     0.152220000000     0.388170000000     0.0483133  
H207     H      0.336990000000     0.143900000000     0.427380000000     0.0277083  
H208     H      0.357430000000     0.237740000000     0.348720000000     0.0230603  
H209     H      0.332360000000     0.220230000000     0.647560000000     0.0409846  
H210     H      0.258140000000     0.114080000000     0.638890000000     0.0228398  
H211     H      0.230600000000     0.238420000000     0.668520000000     0.0237554  
H212     H      0.237080000000     0.183930000000     0.687450000000     0.0409459  
H213     H      0.231310000000     0.164930000000     0.639520000000     0.0411507  
H214     H      0.340590000000     0.171470000000     0.635890000000     0.0408721  
H215     H      0.321030000000     0.269720000000     0.675300000000     0.0324066  
H216     H      0.234300000000     0.120140000000     0.601080000000     0.0317051  
H217     H      0.269490000000     0.194490000000     0.715280000000     0.0493533  
H218     H      0.319330000000     0.180820000000     0.596890000000     0.0485203  
H219     H      0.226980000000     0.235340000000     0.713570000000     0.0319424  
H220     H      0.323260000000     0.118680000000     0.635380000000     0.023532   
H221     H      0.327430000000     0.215140000000     0.692380000000     0.0481979  
H222     H      0.249070000000     0.175250000000     0.600130000000     0.0503894  
H223     H      0.341770000000     0.128020000000     0.595330000000     0.0318699  
H224     H      0.289930000000     0.259720000000     0.644490000000     0.0243705  
H225     H      0.339690000000     0.968890000000     0.628660000000     0.0408247  
H226     H      0.274060000000     0.937170000000     0.728350000000     0.0251553  
H227     H      0.250280000000     0.960070000000     0.571620000000     0.0243073  
H228     H      0.229400000000     0.967990000000     0.627760000000     0.0408761  
H229     H      0.238100000000     0.957660000000     0.683830000000     0.0411156  
H230     H      0.329550000000     0.938520000000     0.687550000000     0.0473746  
H231     H      0.338660000000     0.992950000000     0.572620000000     0.0319934  
H232     H      0.236150000000     0.915110000000     0.724900000000     0.0312494  
H233     H      0.249890000000     0.004950000000     0.632200000000     0.0482824  
H234     H      0.331870000000     0.922090000000     0.645550000000     0.0420186  
H235     H      0.230660000000     0.997530000000     0.573990000000     0.0320674  
H236     H      0.330530000000     0.881840000000     0.690650000000     0.0289533  
H237     H      0.318150000000     0.004840000000     0.630210000000     0.0504761  
H238     H      0.236400000000     0.920340000000     0.662750000000     0.0487448  
H239     H      0.298710000000     0.878120000000     0.659200000000     0.0285927  
H240     H      0.315420000000     0.957250000000     0.572370000000     0.0235129  
H241     H      0.239950000000     0.007490000000     0.362750000000     0.0410452  
H242     H      0.344580000000     0.946430000000     0.306270000000     0.0228778  
H243     H      0.313690000000     0.975610000000     0.430180000000     0.0236164  
H244     H      0.347150000000     0.989570000000     0.378830000000     0.0411893  
H245     H      0.333340000000     0.943370000000     0.367260000000     0.0417297  
H246     H      0.253750000000     0.991520000000     0.311730000000     0.0409155  
H247     H      0.236950000000     0.030050000000     0.420280000000     0.0317468  
H248     H      0.338970000000     0.906940000000     0.319590000000     0.0315429  
H249     H      0.331080000000     0.027710000000     0.380240000000     0.050086   
H250     H      0.244000000000     0.952920000000     0.326790000000     0.0481939  
H251     H      0.340870000000     0.008030000000     0.437760000000     0.032223   
H252     H      0.295480000000     0.973410000000     0.273160000000     0.0244164  
H253     H      0.268580000000     0.039300000000     0.368180000000     0.0478075  
H254     H      0.295640000000     0.922820000000     0.360130000000     0.0513582  
H255     H      0.257740000000     0.951470000000     0.266560000000     0.0313921  
H256     H      0.247430000000     0.989460000000     0.420020000000     0.0254188  
H257     H      0.829500000000     0.416990000000     0.143290000000     0.0406001  
H258     H      0.745610000000     0.478530000000     0.079280000000     0.025095   
H259     H      0.788780000000     0.450380000000     0.232940000000     0.0230473  
H260     H      0.748480000000     0.467920000000     0.193110000000     0.0409323  
H261     H      0.732650000000     0.478370000000     0.139260000000     0.0413174  
H262     H      0.808770000000     0.449450000000     0.089620000000     0.0473468  
H263     H      0.833310000000     0.383050000000     0.192940000000     0.0318149  
H264     H      0.732240000000     0.516050000000     0.093590000000     0.031436   
H265     H      0.737080000000     0.429120000000     0.180290000000     0.0485229  
H266     H      0.838070000000     0.462090000000     0.121670000000     0.0417279  
H267     H      0.750360000000     0.429910000000     0.240460000000     0.0317137  
H268     H      0.835290000000     0.498060000000     0.072660000000     0.0297286  
H269     H      0.791910000000     0.395420000000     0.148840000000     0.0499291  
H270     H      0.762070000000     0.509350000000     0.147790000000     0.0489378  
H271     H      0.827230000000     0.515810000000     0.112680000000     0.0271967  
H272     H      0.836780000000     0.423390000000     0.204050000000     0.0229435  
H273     H      0.824890000000     0.734610000000     0.145210000000     0.0410198  
H274     H      0.747130000000     0.629970000000     0.138520000000     0.0230787  
H275     H      0.723400000000     0.758860000000     0.159880000000     0.0237222  
H276     H      0.725470000000     0.705320000000     0.181900000000     0.0409855  
H277     H      0.722100000000     0.681120000000     0.136810000000     0.0412025  
H278     H      0.831420000000     0.685230000000     0.137640000000     0.0409532  
H279     H      0.814830000000     0.786010000000     0.167850000000     0.0325342  
H280     H      0.725480000000     0.635630000000     0.099300000000     0.0317242  
H281     H      0.757000000000     0.715290000000     0.211010000000     0.0494097  
H282     H      0.812590000000     0.693690000000     0.097110000000     0.0488325  
H283     H      0.717660000000     0.758360000000     0.204860000000     0.0318503  
H284     H      0.812070000000     0.633190000000     0.138650000000     0.0235673  
H285     H      0.817450000000     0.732470000000     0.189960000000     0.0486726  
H286     H      0.741120000000     0.690260000000     0.097620000000     0.0502081  
H287     H      0.833300000000     0.640340000000     0.099490000000     0.0321601  
H288     H      0.784080000000     0.775070000000     0.137100000000     0.0239317  
H289     H      0.839320000000     0.685970000000     0.905010000000     0.0407803  
H290     H      0.779570000000     0.708690000000     0.798780000000     0.0264153  
H291     H      0.745210000000     0.687970000000     0.954970000000     0.0239912  
H292     H      0.729710000000     0.683410000000     0.897220000000     0.040909   
H293     H      0.740630000000     0.693920000000     0.842910000000     0.0412528  
H294     H      0.834440000000     0.713190000000     0.846360000000     0.047868   
H295     H      0.835190000000     0.658560000000     0.958870000000     0.0323211  
H296     H      0.743080000000     0.732860000000     0.798020000000     0.030739   
H297     H      0.751130000000     0.646980000000     0.891580000000     0.0480445  
H298     H      0.830460000000     0.732890000000     0.886570000000     0.041828   
H299     H      0.728060000000     0.649900000000     0.948400000000     0.0320317  
H300     H      0.834010000000     0.769630000000     0.838500000000     0.0301756  
H301     H      0.820240000000     0.649050000000     0.899320000000     0.0499526  
H302     H      0.739530000000     0.732830000000     0.860220000000     0.0484924  
H303     H      0.797070000000     0.774000000000     0.863590000000     0.027082   
H304     H      0.810500000000     0.693390000000     0.959390000000     0.0235576  
H305     H      0.747230000000     0.453840000000     0.921460000000     0.0420279  
H306     H      0.743290000000     0.451000000000     0.813930000000     0.0262606  
H307     H      0.834500000000     0.506610000000     0.927540000000     0.0267729  
H308     H      0.821820000000     0.508920000000     0.867440000000     0.0419134  
H309     H      0.790160000000     0.486350000000     0.823350000000     0.0418802  
H310     H      0.782820000000     0.418200000000     0.905110000000     0.0419234  
H311     H      0.746280000000     0.495210000000     0.966830000000     0.0299828  
H312     H      0.775000000000     0.444990000000     0.782250000000     0.0289228  
H313     H      0.781730000000     0.527150000000     0.874870000000     0.0488886  
H314     H      0.815580000000     0.413910000000     0.875180000000     0.0498506  
H315     H      0.823690000000     0.545880000000     0.916010000000     0.02701    
H316     H      0.740480000000     0.405510000000     0.863410000000     0.0226583  
H317     H      0.734970000000     0.491360000000     0.907220000000     0.0498026  
H318     H      0.820000000000     0.454840000000     0.823790000000     0.0491838  
H319     H      0.772570000000     0.376520000000     0.861130000000     0.0304369  
H320     H      0.785210000000     0.474990000000     0.962670000000     0.0228183  
H321     H      0.648150000000     0.935990000000     0.157450000000     0.0416943  
H322     H      0.668080000000     0.910610000000     0.020450000000     0.0226759  
H323     H      0.721590000000     0.866650000000     0.126110000000     0.0230039  
H324     H      0.729950000000     0.911470000000     0.088690000000     0.0414147  
H325     H      0.690920000000     0.882260000000     0.066680000000     0.0422297  
H326     H      0.631820000000     0.958410000000     0.107830000000     0.0414928  
H327     H      0.677010000000     0.907000000000     0.203250000000     0.0285571  
H328     H      0.646140000000     0.874360000000     0.022010000000     0.0313486  
H329     H      0.736890000000     0.936350000000     0.123670000000     0.0489831  
H330     H      0.610310000000     0.921390000000     0.106450000000     0.0495327  
H331     H      0.759440000000     0.885900000000     0.138100000000     0.0312316  
H332     H      0.637430000000     0.960070000000     0.046660000000     0.0247461  
H333     H      0.689700000000     0.950390000000     0.164440000000     0.0488152  
H334     H      0.650870000000     0.871430000000     0.082400000000     0.0502854  
H335     H      0.594270000000     0.955300000000     0.058780000000     0.0311746  
H336     H      0.665620000000     0.882190000000     0.168540000000     0.0274585  
H337     H      0.443690000000     0.839900000000     0.176220000000     0.040961   
H338     H      0.433820000000     0.899460000000     0.059270000000     0.0239999  
H339     H      0.378690000000     0.915600000000     0.175190000000     0.0235129  
H340     H      0.386020000000     0.905430000000     0.114300000000     0.0417756  
H341     H      0.432500000000     0.929260000000     0.113430000000     0.0413551  
H342     H      0.473720000000     0.835970000000     0.130970000000     0.0411301  
H343     H      0.395020000000     0.834970000000     0.214620000000     0.031673   
H344     H      0.463150000000     0.930990000000     0.058980000000     0.0324828  
H345     H      0.371000000000     0.867030000000     0.119000000000     0.0505296  
H346     H      0.500190000000     0.869670000000     0.131870000000     0.0475762  
H347     H      0.340460000000     0.902630000000     0.156160000000     0.0321486  
H348     H      0.463200000000     0.840310000000     0.071400000000     0.0259044  
H349     H      0.406910000000     0.825330000000     0.155030000000     0.0481337  
H350     H      0.475820000000     0.923240000000     0.118790000000     0.0491856  
H351     H      0.507470000000     0.841800000000     0.078720000000     0.0319001  
H352     H      0.412650000000     0.873320000000     0.212640000000     0.0247606  
H353     H      0.422300000000     0.811390000000     0.894830000000     0.0413466  
H354     H      0.312330000000     0.839520000000     0.876970000000     0.0246273  
H355     H      0.445320000000     0.908460000000     0.890900000000     0.0256477  
H356     H      0.387130000000     0.907650000000     0.906910000000     0.0413254  
H357     H      0.341210000000     0.886960000000     0.888770000000     0.0412859  
H358     H      0.410890000000     0.820070000000     0.843310000000     0.0415175  
H359     H      0.476510000000     0.827200000000     0.920680000000     0.0316799  
H360     H      0.297620000000     0.869610000000     0.849220000000     0.0317936  
H361     H      0.394800000000     0.883990000000     0.943560000000     0.0482716  
H362     H      0.395120000000     0.850650000000     0.818090000000     0.0500015  
H363     H      0.440620000000     0.920870000000     0.933960000000     0.0315632  
H364     H      0.354940000000     0.797020000000     0.849000000000     0.0227465  
H365     H      0.417150000000     0.827600000000     0.935440000000     0.0499316  
H366     H      0.353340000000     0.892890000000     0.845320000000     0.048717   
H367     H      0.365130000000     0.802760000000     0.805360000000     0.0315796  
H368     H      0.468490000000     0.848270000000     0.882460000000     0.0229097  
H369     H      0.698130000000     0.927330000000     0.839080000000     0.0412208  
H370     H      0.572200000000     0.883120000000     0.852460000000     0.0222483  
H371     H      0.675490000000     0.832520000000     0.817180000000     0.0235267  
H372     H      0.627590000000     0.862560000000     0.792060000000     0.0410701  
H373     H      0.619840000000     0.848190000000     0.843520000000     0.0420028  
H374     H      0.649870000000     0.944960000000     0.860250000000     0.0413556  
H375     H      0.745160000000     0.896900000000     0.813640000000     0.0321107  
H376     H      0.575280000000     0.854840000000     0.885540000000     0.0302038  
H377     H      0.656130000000     0.884640000000     0.767810000000     0.0490825  
H378     H      0.658160000000     0.918390000000     0.894560000000     0.0482641  
H379     H      0.675680000000     0.830740000000     0.772000000000     0.0322521  
H380     H      0.590380000000     0.940880000000     0.866270000000     0.025256   
H381     H      0.694830000000     0.923780000000     0.794140000000     0.047602   
H382     H      0.636820000000     0.857590000000     0.883640000000     0.0523116  
H383     H      0.607640000000     0.948110000000     0.907580000000     0.0295777  
H384     H      0.722120000000     0.875660000000     0.844910000000     0.0260744  
H385     H      0.235170000000     0.749010000000     0.114530000000     0.0412189  
H386     H      0.317150000000     0.681840000000     0.068380000000     0.0251703  
H387     H      0.269110000000     0.729020000000     0.210940000000     0.0243904  
H388     H      0.312980000000     0.706400000000     0.177320000000     0.0410666  
H389     H      0.327910000000     0.685900000000     0.127850000000     0.0412503  
H390     H      0.221700000000     0.702300000000     0.106540000000     0.0412312  
H391     H      0.233750000000     0.793740000000     0.154710000000     0.0317954  
H392     H      0.328310000000     0.644450000000     0.085280000000     0.0313482  
H393     H      0.323360000000     0.743040000000     0.157590000000     0.0487162  
H394     H      0.233160000000     0.666290000000     0.124810000000     0.0496609  
H395     H      0.307910000000     0.749250000000     0.217370000000     0.0321413  
H396     H      0.251150000000     0.690560000000     0.054370000000     0.0232876  
H397     H      0.273880000000     0.768800000000     0.117650000000     0.0496087  
H398     H      0.298980000000     0.655150000000     0.138380000000     0.048493   
H399     H      0.223710000000     0.659080000000     0.064810000000     0.0318282  
H400     H      0.222520000000     0.757390000000     0.173740000000     0.0233992  
H401     H      0.324220000000     0.474020000000     0.202120000000     0.0409166  
H402     H      0.227970000000     0.509760000000     0.091650000000     0.0312734  
H403     H      0.233750000000     0.431820000000     0.210720000000     0.0233934  
H404     H      0.244030000000     0.423140000000     0.149940000000     0.0406583  
H405     H      0.257280000000     0.460460000000     0.101920000000     0.0484619  
H406     H      0.335880000000     0.490450000000     0.150030000000     0.0414008  
H407     H      0.320450000000     0.435980000000     0.249430000000     0.0321667  
H408     H      0.242700000000     0.525790000000     0.130690000000     0.0258283  
H409     H      0.281450000000     0.402440000000     0.158850000000     0.049953   
H410     H      0.304600000000     0.519050000000     0.161030000000     0.0477589  
H411     H      0.236740000000     0.391280000000     0.200450000000     0.0321548  
H412     H      0.323910000000     0.493710000000     0.090640000000     0.0275808  
H413     H      0.333900000000     0.434880000000     0.189310000000     0.0482766  
H414     H      0.230600000000     0.471150000000     0.137080000000     0.0418281  
H415     H      0.330930000000     0.531960000000     0.106850000000     0.0293981  
H416     H      0.283090000000     0.458070000000     0.242000000000     0.0237507  
H417     H      0.251300000000     0.441730000000     0.946930000000     0.0473694  
H418     H      0.270540000000     0.447020000000     0.803490000000     0.024043   
H419     H      0.314230000000     0.471670000000     0.956760000000     0.0254553  
H420     H      0.327030000000     0.469560000000     0.896970000000     0.0410864  
H421     H      0.312850000000     0.457600000000     0.843840000000     0.0409265  
H422     H      0.230590000000     0.408250000000     0.894580000000     0.0406155  
H423     H      0.232040000000     0.507550000000     0.922800000000     0.0273508  
H424     H      0.305520000000     0.422360000000     0.794210000000     0.0320985  
H425     H      0.297940000000     0.500530000000     0.887230000000     0.0488659  
H426     H      0.266080000000     0.386280000000     0.882240000000     0.0498284  
H427     H      0.327200000000     0.508900000000     0.941360000000     0.0315237  
H428     H      0.219230000000     0.422730000000     0.835010000000     0.0236931  
H429     H      0.221690000000     0.453710000000     0.914890000000     0.0417858  
H430     H      0.319790000000     0.417290000000     0.853630000000     0.0477803  
H431     H      0.218870000000     0.381490000000     0.841890000000     0.0322605  
H432     H      0.224460000000     0.490330000000     0.963170000000     0.0300325  
H433     H      0.316260000000     0.665170000000     0.874430000000     0.0414698  
H434     H      0.202170000000     0.718290000000     0.829370000000     0.0232068  
H435     H      0.217610000000     0.641840000000     0.946020000000     0.0311875  
H436     H      0.244620000000     0.691890000000     0.933090000000     0.0486114  
H437     H      0.222980000000     0.729300000000     0.886870000000     0.0407914  
H438     H      0.295320000000     0.678510000000     0.823530000000     0.0408359  
H439     H      0.318640000000     0.623020000000     0.917390000000     0.0290063  
H440     H      0.206260000000     0.759350000000     0.836650000000     0.0318214  
H441     H      0.213130000000     0.681370000000     0.902170000000     0.041987   
H442     H      0.304450000000     0.718800000000     0.831730000000     0.0490474  
H443     H      0.227340000000     0.626840000000     0.904950000000     0.0261221  
H444     H      0.245030000000     0.690490000000     0.792830000000     0.02347    
H445     H      0.285280000000     0.635280000000     0.867110000000     0.0479079  
H446     H      0.257350000000     0.750600000000     0.870510000000     0.0505356  
H447     H      0.279420000000     0.711820000000     0.775250000000     0.0321524  
H448     H      0.311800000000     0.660830000000     0.934940000000     0.0273763  
H449     H      0.462050000000     0.252180000000     0.157640000000     0.0414943  
H450     H      0.365370000000     0.336500000000     0.160900000000     0.0218045  
H451     H      0.402710000000     0.275590000000     0.073580000000     0.0216955  
H452     H      0.400060000000     0.323150000000     0.108570000000     0.0424304  
H453     H      0.362160000000     0.288480000000     0.126340000000     0.0421743  
H454     H      0.441130000000     0.279470000000     0.202450000000     0.0415131  
H455     H      0.486430000000     0.238720000000     0.100870000000     0.028393   
H456     H      0.326860000000     0.316510000000     0.168780000000     0.0305334  
H457     H      0.444300000000     0.326880000000     0.107110000000     0.0516689  
H458     H      0.402230000000     0.259130000000     0.208540000000     0.0486875  
H459     H      0.423710000000     0.307050000000     0.052760000000     0.0292522  
H460     H      0.414220000000     0.330130000000     0.209010000000     0.0258446  
H461     H      0.482580000000     0.284710000000     0.137820000000     0.0479845  
H462     H      0.354750000000     0.265920000000     0.163190000000     0.0509429  
H463     H      0.403430000000     0.305890000000     0.244480000000     0.0295126  
H464     H      0.441930000000     0.232280000000     0.103640000000     0.0260453  
H465     H      0.615820000000     0.316490000000     0.170760000000     0.0410613  
H466     H      0.589020000000     0.342520000000     0.059050000000     0.0289892  
H467     H      0.711000000000     0.285360000000     0.138050000000     0.0262235  
H468     H      0.697860000000     0.326640000000     0.097850000000     0.041539   
H469     H      0.649800000000     0.346300000000     0.067400000000     0.0418737  
H470     H      0.581080000000     0.306130000000     0.119610000000     0.0483229  
H471     H      0.658050000000     0.307420000000     0.216130000000     0.0305925  
H472     H      0.610030000000     0.329030000000     0.021880000000     0.025942   
H473     H      0.693960000000     0.355150000000     0.130830000000     0.0479378  
H474     H      0.608980000000     0.275180000000     0.132590000000     0.0428777  
H475     H      0.738680000000     0.317830000000     0.144900000000     0.0293046  
H476     H      0.572570000000     0.257620000000     0.086340000000     0.0283347  
H477     H      0.643990000000     0.348240000000     0.175320000000     0.0500944  
H478     H      0.655790000000     0.305940000000     0.056220000000     0.0482891  
H479     H      0.615720000000     0.257550000000     0.073660000000     0.0277654  
H480     H      0.660350000000     0.278990000000     0.183130000000     0.0227594  
H481     H      0.589550000000     0.324450000000     0.851720000000     0.0416828  
H482     H      0.696820000000     0.293970000000     0.851200000000     0.0254988  
H483     H      0.566440000000     0.231790000000     0.879470000000     0.023833   
H484     H      0.625020000000     0.229920000000     0.872050000000     0.0411335  
H485     H      0.669530000000     0.243680000000     0.846440000000     0.0411194  
H486     H      0.602660000000     0.313700000000     0.801640000000     0.0408069  
H487     H      0.547750000000     0.317880000000     0.896420000000     0.0323113  
H488     H      0.717250000000     0.270130000000     0.820280000000     0.032461   
H489     H      0.633590000000     0.258380000000     0.904480000000     0.0487693  
H490     H      0.627280000000     0.288430000000     0.777130000000     0.048532   
H491     H      0.585670000000     0.226610000000     0.920040000000     0.0322607  
H492     H      0.654200000000     0.340440000000     0.822710000000     0.0242288  
H493     H      0.608720000000     0.317650000000     0.891360000000     0.0505588  
H494     H      0.664040000000     0.247570000000     0.801890000000     0.0480425  
H495     H      0.653010000000     0.339900000000     0.777440000000     0.0320972  
H496     H      0.543870000000     0.288520000000     0.864510000000     0.0232018  
H497     H      0.356800000000     0.280620000000     0.922380000000     0.042065   
H498     H      0.376500000000     0.296980000000     0.824570000000     0.0266473  
H499     H      0.416330000000     0.204090000000     0.929190000000     0.0252834  
H500     H      0.416660000000     0.212360000000     0.868220000000     0.0416881  
H501     H      0.396950000000     0.242880000000     0.822770000000     0.0414863  
H502     H      0.318160000000     0.250770000000     0.899130000000     0.0411958  
H503     H      0.403650000000     0.285830000000     0.965090000000     0.0286458  
H504     H      0.364530000000     0.278650000000     0.785540000000     0.0292425  
H505     H      0.436500000000     0.249920000000     0.872650000000     0.049446   
H506     H      0.309870000000     0.232900000000     0.859580000000     0.049241   
H507     H      0.458240000000     0.213100000000     0.915160000000     0.0282873  
H508     H      0.323960000000     0.302030000000     0.871850000000     0.0221763  
H509     H      0.395160000000     0.295210000000     0.905760000000     0.0511564  
H510     H      0.355700000000     0.228380000000     0.814420000000     0.0484217  
H511     H      0.285420000000     0.284680000000     0.858720000000     0.030845   
H512     H      0.384100000000     0.248400000000     0.962690000000     0.0220747  
N1       N      0.210670000000     0.367820000000     0.688610000000    -0.188974   
N2       N      0.104130000000     0.402100000000     0.562360000000    -0.189327   
N3       N      0.090150000000     0.393620000000     0.424520000000    -0.188809   
N4       N      0.229280000000     0.354940000000     0.343250000000    -0.189667   
N5       N      0.956180000000     0.377350000000     0.436850000000    -0.188649   
N6       N      0.822150000000     0.337660000000     0.333910000000    -0.188929   
N7       N      0.842800000000     0.378410000000     0.705530000000    -0.189179   
N8       N      0.966860000000     0.384600000000     0.576870000000    -0.189542   
N9       N      0.749490000000     0.147280000000     0.581760000000    -0.188662   
N10      N      0.760620000000     0.278390000000     0.683770000000    -0.188537   
N11      N      0.752870000000     0.144680000000     0.440260000000    -0.189432   
N12      N      0.735240000000     0.246430000000     0.299590000000    -0.189243   
N13      N      0.762900000000     0.923810000000     0.301010000000    -0.188775   
N14      N      0.764330000000     0.017120000000     0.444890000000    -0.188644   
N15      N      0.783690000000     0.883180000000     0.675810000000    -0.188964   
N16      N      0.759530000000     0.021350000000     0.584920000000    -0.188921   
N17      N      0.075960000000     0.810920000000     0.405910000000    -0.188144   
N18      N      0.202220000000     0.833270000000     0.289890000000    -0.188417   
N19      N      0.099590000000     0.795330000000     0.537520000000    -0.189419   
N20      N      0.195600000000     0.796140000000     0.687600000000    -0.189892   
N21      N      0.968410000000     0.774440000000     0.565250000000    -0.188578   
N22      N      0.858680000000     0.781470000000     0.693530000000    -0.188056   
N23      N      0.811500000000     0.802790000000     0.315320000000    -0.18951    
N24      N      0.937760000000     0.791140000000     0.427460000000    -0.188659   
N25      N      0.292250000000     0.145000000000     0.455860000000    -0.189114   
N26      N      0.314320000000     0.257400000000     0.326130000000    -0.188722   
N27      N      0.288110000000     0.121850000000     0.595680000000    -0.188766   
N28      N      0.272580000000     0.256130000000     0.694840000000    -0.188551   
N29      N      0.280990000000     0.892530000000     0.707020000000    -0.189375   
N30      N      0.284690000000     0.997390000000     0.570700000000    -0.188828   
N31      N      0.298430000000     0.927060000000     0.290700000000    -0.188949   
N32      N      0.288040000000     0.018640000000     0.433270000000    -0.188504   
N33      N      0.784600000000     0.511740000000     0.081460000000    -0.189736   
N34      N      0.790280000000     0.403340000000     0.217630000000    -0.189442   
N35      N      0.779480000000     0.635860000000     0.096760000000    -0.189039   
N36      N      0.765290000000     0.775560000000     0.187070000000    -0.189035   
N37      N      0.788320000000     0.754740000000     0.815300000000    -0.188896   
N38      N      0.781470000000     0.652270000000     0.956500000000    -0.188446   
N39      N      0.770620000000     0.409140000000     0.819830000000    -0.189323   
N40      N      0.786910000000     0.521190000000     0.944860000000    -0.189499   
N41      N      0.618390000000     0.914870000000     0.037640000000    -0.189025   
N42      N      0.717660000000     0.891250000000     0.172160000000    -0.189005   
N43      N      0.484310000000     0.884850000000     0.063360000000    -0.188015   
N44      N      0.365540000000     0.869580000000     0.188670000000    -0.188329   
N45      N      0.328110000000     0.833920000000     0.826330000000    -0.189108   
N46      N      0.462790000000     0.875560000000     0.926580000000    -0.188879   
N47      N      0.589440000000     0.901850000000     0.898660000000    -0.189496   
N48      N      0.713740000000     0.859800000000     0.794930000000    -0.188203   
N49      N      0.276560000000     0.650370000000     0.071240000000    -0.188552   
N50      N      0.270090000000     0.773780000000     0.188730000000    -0.188613   
N51      N      0.280330000000     0.521480000000     0.093460000000    -0.189229   
N52      N      0.279040000000     0.411070000000     0.227040000000    -0.188835   
N53      N      0.261960000000     0.399830000000     0.815300000000    -0.188534   
N54      N      0.274920000000     0.504460000000     0.953800000000    -0.188872   
N55      N      0.243630000000     0.738540000000     0.804290000000    -0.189541   
N56      N      0.269550000000     0.631310000000     0.936840000000    -0.189815   
N57      N      0.364110000000     0.314060000000     0.208390000000    -0.189602   
N58      N      0.455410000000     0.271360000000     0.074100000000    -0.189885   
N59      N      0.587010000000     0.293760000000     0.051760000000    -0.189473   
N60      N      0.700500000000     0.310950000000     0.182510000000    -0.188893   
N61      N      0.688850000000     0.309030000000     0.800850000000    -0.188276   
N62      N      0.563780000000     0.271640000000     0.910500000000    -0.188636   
N63      N      0.324810000000     0.286200000000     0.821340000000    -0.189002   
N64      N      0.432700000000     0.249320000000     0.942160000000    -0.189698   
O1       O      0.554370000000     0.257540000000     0.025600000000    -0.561747   
O2       O      0.480570000000     0.235860000000     0.970200000000    -0.559237   
O3       O      0.545280000000     0.247410000000     0.958780000000    -0.558453   
O4       O      0.490290000000     0.246320000000     0.037160000000    -0.557765   
O5       O      0.479810000000     0.296980000000     0.030080000000    -0.561493   
O6       O      0.531120000000     0.296870000000     0.949580000000    -0.559692   
O7       O      0.466630000000     0.286050000000     0.965870000000    -0.557523   
O8       O      0.545040000000     0.307880000000     0.015170000000    -0.553791   
O9       O      0.250070000000     0.549280000000     0.054510000000    -0.561267   
O10      O      0.244920000000     0.601440000000     0.977650000000    -0.564186   
O11      O      0.247340000000     0.539900000000     0.987220000000    -0.557198   
O12      O      0.247950000000     0.611310000000     0.044020000000    -0.557113   
O13      O      0.303780000000     0.611610000000     0.042500000000    -0.560054   
O14      O      0.303100000000     0.541520000000     0.984350000000    -0.559603   
O15      O      0.300700000000     0.603470000000     0.975240000000    -0.555945   
O16      O      0.305850000000     0.549790000000     0.051530000000    -0.5569     
O17      O      0.561250000000     0.924330000000     0.942980000000    -0.554629   
O18      O      0.506020000000     0.914970000000     0.020710000000    -0.557888   
O19      O      0.570450000000     0.929130000000     0.010250000000    -0.562607   
O20      O      0.496360000000     0.910480000000     0.954190000000    -0.561413   
O21      O      0.507760000000     0.859820000000     0.958480000000    -0.557212   
O22      O      0.586130000000     0.879320000000     0.008930000000    -0.554954   
O23      O      0.521980000000     0.865400000000     0.024870000000    -0.557997   
O24      O      0.570570000000     0.873110000000     0.943110000000    -0.562823   
O25      O      0.754360000000     0.613890000000     0.986510000000    -0.556983   
O26      O      0.755880000000     0.546700000000     0.048770000000    -0.560981   
O27      O      0.753270000000     0.608560000000     0.054440000000    -0.558883   
O28      O      0.756960000000     0.550940000000     0.981860000000    -0.559082   
O29      O      0.812680000000     0.555490000000     0.980420000000    -0.559586   
O30      O      0.809060000000     0.609220000000     0.056390000000    -0.560878   
O31      O      0.811740000000     0.547500000000     0.048140000000    -0.55839    
O32      O      0.810010000000     0.617110000000     0.989170000000    -0.561007   
O33      O      0.258460000000     0.035870000000     0.540220000000    -0.556524   
O34      O      0.262110000000     0.108610000000     0.485630000000    -0.556317   
O35      O      0.260220000000     0.047380000000     0.473300000000    -0.557847   
O36      O      0.260180000000     0.097080000000     0.552660000000    -0.557443   
O37      O      0.316000000000     0.096270000000     0.553230000000    -0.560025   
O38      O      0.315940000000     0.044670000000     0.475380000000    -0.559659   
O39      O      0.317930000000     0.106410000000     0.486300000000    -0.560061   
O40      O      0.314240000000     0.034780000000     0.542100000000    -0.561408   
O41      O      0.983990000000     0.767040000000     0.449750000000    -0.557268   
O42      O      0.060410000000     0.768110000000     0.506970000000    -0.557742   
O43      O      0.994400000000     0.758510000000     0.516490000000    -0.55735    
O44      O      0.049930000000     0.776280000000     0.441170000000    -0.560559   
O45      O      0.039110000000     0.826890000000     0.447110000000    -0.555662   
O46      O      0.990950000000     0.809270000000     0.527730000000    -0.558574   
O47      O      0.054970000000     0.819490000000     0.512430000000    -0.562137   
O48      O      0.974040000000     0.816750000000     0.462560000000    -0.559656   
O49      O      0.727170000000     0.111030000000     0.476810000000    -0.562419   
O50      O      0.730370000000     0.050720000000     0.546520000000    -0.561472   
O51      O      0.725220000000     0.113080000000     0.544470000000    -0.558443   
O52      O      0.732590000000     0.048910000000     0.478850000000    -0.559402   
O53      O      0.788210000000     0.053110000000     0.480350000000    -0.559114   
O54      O      0.780900000000     0.116590000000     0.546530000000    -0.559507   
O55      O      0.786010000000     0.054750000000     0.548310000000    -0.557519   
O56      O      0.782830000000     0.115360000000     0.478350000000    -0.555884   
O57      O      0.993950000000     0.412700000000     0.535930000000    -0.558481   
O58      O      0.056950000000     0.417870000000     0.464090000000    -0.553787   
O59      O      0.989880000000     0.409440000000     0.468450000000    -0.556666   
O60      O      0.060010000000     0.421110000000     0.531980000000    -0.558454   
O61      O      0.070620000000     0.370100000000     0.530790000000    -0.558898   
O62      O      0.996070000000     0.358010000000     0.472790000000    -0.561536   
O63      O      0.061150000000     0.366070000000     0.464080000000    -0.565992   
O64      O      0.004070000000     0.361790000000     0.540250000000    -0.560661   
O65      O      0.324290000000     0.309280000000     0.316580000000    -0.556178   
O66      O      0.308880000000     0.383530000000     0.266740000000    -0.555331   
O67      O      0.283190000000     0.358590000000     0.323340000000    -0.554407   
O68      O      0.350010000000     0.334060000000     0.260140000000    -0.55518    
O69      O      0.310240000000     0.313220000000     0.227580000000    -0.564998   
O70      O      0.245370000000     0.331210000000     0.294320000000    -0.565644   
O71      O      0.267840000000     0.359850000000     0.238510000000    -0.562852   
O72      O      0.287720000000     0.284300000000     0.283780000000    -0.561484   
O73      O      0.767590000000     0.274040000000     0.262160000000    -0.558739   
O74      O      0.796710000000     0.350870000000     0.225360000000    -0.560798   
O75      O      0.811130000000     0.317810000000     0.281190000000    -0.557433   
O76      O      0.752870000000     0.307490000000     0.205970000000    -0.5556     
O77      O      0.711320000000     0.328780000000     0.235810000000    -0.56037    
O78      O      0.771550000000     0.345030000000     0.307760000000    -0.560509   
O79      O      0.754400000000     0.375100000000     0.251050000000    -0.559454   
O80      O      0.728810000000     0.299010000000     0.292300000000    -0.560613   
O81      O      0.745020000000     0.310330000000     0.789300000000    -0.562051   
O82      O      0.820030000000     0.346950000000     0.746320000000    -0.560965   
O83      O      0.783240000000     0.359880000000     0.801880000000    -0.557225   
O84      O      0.781240000000     0.297510000000     0.733830000000    -0.558329   
O85      O      0.744150000000     0.325690000000     0.704890000000    -0.558862   
O86      O      0.753180000000     0.391130000000     0.768510000000    -0.559934   
O87      O      0.785960000000     0.374140000000     0.712860000000    -0.5581     
O88      O      0.711110000000     0.342490000000     0.761310000000    -0.555781   
O89      O      0.766230000000     0.877550000000     0.199050000000    -0.559409   
O90      O      0.812010000000     0.833570000000     0.268200000000    -0.559558   
O91      O      0.789590000000     0.820200000000     0.206660000000    -0.564222   
O92      O      0.788670000000     0.892380000000     0.261720000000    -0.558126   
O93      O      0.739460000000     0.878020000000     0.283290000000    -0.561386   
O94      O      0.740590000000     0.805510000000     0.228470000000    -0.556075   
O95      O      0.762960000000     0.820270000000     0.291140000000    -0.558557   
O96      O      0.717160000000     0.863940000000     0.221730000000    -0.559204   
O97      O      0.803660000000     0.864280000000     0.726160000000    -0.558867   
O98      O      0.806210000000     0.801640000000     0.793920000000    -0.556184   
O99      O      0.840090000000     0.813240000000     0.736180000000    -0.560133   
O100     O      0.769720000000     0.853380000000     0.783560000000    -0.55841    
O101     O      0.732450000000     0.824640000000     0.755540000000    -0.559856   
O102     O      0.802830000000     0.785540000000     0.706900000000    -0.557026   
O103     O      0.769500000000     0.773430000000     0.764470000000    -0.559999   
O104     O      0.765450000000     0.836820000000     0.697910000000    -0.559799   
O105     O      0.275260000000     0.901070000000     0.245740000000    -0.556525   
O106     O      0.262190000000     0.826560000000     0.195350000000    -0.553878   
O107     O      0.229450000000     0.855910000000     0.245330000000    -0.560575   
O108     O      0.308510000000     0.872650000000     0.195510000000    -0.557953   
O109     O      0.338620000000     0.845840000000     0.232990000000    -0.55824    
O110     O      0.259280000000     0.829000000000     0.282970000000    -0.556014   
O111     O      0.292770000000     0.800580000000     0.233100000000    -0.563367   
O112     O      0.305960000000     0.874660000000     0.283090000000    -0.560905   
O113     O      0.291900000000     0.841180000000     0.718200000000    -0.559299   
O114     O      0.272030000000     0.765800000000     0.763680000000    -0.562085   
O115     O      0.249460000000     0.793760000000     0.707600000000    -0.55803    
O116     O      0.314240000000     0.812780000000     0.774850000000    -0.55813    
O117     O      0.275330000000     0.838320000000     0.804270000000    -0.563374   
O118     O      0.210390000000     0.817870000000     0.738270000000    -0.563846   
O119     O      0.233540000000     0.790370000000     0.794570000000    -0.560313   
O120     O      0.252270000000     0.865550000000     0.747860000000    -0.560238   
O121     O      0.242600000000     0.352590000000     0.797070000000    -0.561405   
O122     O      0.247410000000     0.282710000000     0.738580000000    -0.556458   
O123     O      0.272910000000     0.297470000000     0.800020000000    -0.558846   
O124     O      0.217100000000     0.338740000000     0.736590000000    -0.558724   
O125     O      0.262480000000     0.357310000000     0.710500000000    -0.559102   
O126     O      0.318210000000     0.317040000000     0.774680000000    -0.55931    
O127     O      0.293130000000     0.302470000000     0.714390000000    -0.56158    
O128     O      0.287400000000     0.373040000000     0.771850000000    -0.555951   
V1       V      0.518130000000     0.244750000000     0.998160000000     1.39178    
V2       V      0.505380000000     0.299020000000     0.989860000000     1.38675    
V3       V      0.245360000000     0.575340000000     0.016050000000     1.39322    
V4       V      0.305590000000     0.576630000000     0.013310000000     1.38517    
V5       V      0.533090000000     0.921780000000     0.981940000000     1.39029    
V6       V      0.547200000000     0.867390000000     0.984120000000     1.38697    
V7       V      0.752860000000     0.580070000000     0.017700000000     1.38828    
V8       V      0.813110000000     0.582400000000     0.018520000000     1.39226    
V9       V      0.258010000000     0.072330000000     0.512890000000     1.38072    
V10      V      0.318240000000     0.070510000000     0.514280000000     1.39447    
V11      V      0.022330000000     0.765400000000     0.478230000000     1.38635    
V12      V      0.014370000000     0.820170000000     0.487700000000     1.38927    
V13      V      0.726630000000     0.080780000000     0.511600000000     1.39434    
V14      V      0.786710000000     0.085140000000     0.513390000000     1.38412    
V15      V      0.024890000000     0.417380000000     0.499950000000     1.38006    
V16      V      0.033250000000     0.361940000000     0.502250000000     1.40083    
V17      V      0.318200000000     0.347380000000     0.292950000000     1.37197    
V18      V      0.276280000000     0.321130000000     0.259830000000     1.40809    
V19      V      0.783680000000     0.311530000000     0.242500000000     1.3849     
V20      V      0.739880000000     0.338010000000     0.272810000000     1.39296    
V21      V      0.783790000000     0.327490000000     0.769070000000     1.39199    
V22      V      0.747150000000     0.359520000000     0.735640000000     1.38481    
V23      V      0.791080000000     0.856670000000     0.233160000000     1.39441    
V24      V      0.738110000000     0.841260000000     0.257050000000     1.38725    
V25      V      0.806410000000     0.834180000000     0.761180000000     1.38663    
V26      V      0.766080000000     0.803990000000     0.730070000000     1.38979    
V27      V      0.267700000000     0.865050000000     0.218880000000     1.38239    
V28      V      0.300300000000     0.836510000000     0.259600000000     1.39249    
V29      V      0.283510000000     0.802470000000     0.739840000000     1.38829    
V30      V      0.241340000000     0.828990000000     0.772450000000     1.39804    
V31      V      0.243230000000     0.316970000000     0.769010000000     1.38833    
V32      V      0.292100000000     0.338390000000     0.741960000000     1.38925    


