data_structure

_audit_creation_method RASPA-1.0
_audit_creation_date 2023-5-22
_audit_author_name 'Poobodin Mano'

_cell_length_a    28.1236
_cell_length_b    27.9421
_cell_length_c    28.2724
_cell_angle_alpha 90
_cell_angle_beta  89.9999
_cell_angle_gamma 90
_cell_volume      22217.4

_symmetry_cell_setting          triclinic
_symmetry_space_group_name_Hall 'P 1'
_symmetry_space_group_name_H-M  'P 1'
_symmetry_Int_Tables_number     1

_symmetry_equiv_pos_as_xyz 'x,y,z'

loop_
_atom_site_label
_atom_site_type_symbol
_atom_site_fract_x
_atom_site_fract_y
_atom_site_fract_z
_atom_site_charge
C1       C      0.980040000000     0.022870000000     0.551450000000     0.476675   
C2       C      0.963350000000     0.009800000000     0.373640000000     0.47653    
C3       C      0.965570000000     0.926080000000     0.469270000000     0.475009   
C4       C      0.977800000000     0.106810000000     0.455890000000     0.474071   
C5       C      0.969830000000     0.504710000000     0.660970000000     0.475262   
C6       C      0.982000000000     0.545260000000     0.486890000000     0.476208   
C7       C      0.971250000000     0.613550000000     0.593480000000     0.475132   
C8       C      0.980220000000     0.436630000000     0.554030000000     0.473168   
C9       C      0.562030000000     0.038240000000     0.638240000000     0.474249   
C10      C      0.567670000000     0.983220000000     0.467570000000     0.475555   
C11      C      0.560660000000     0.096240000000     0.523440000000     0.476257   
C12      C      0.568530000000     0.924870000000     0.581260000000     0.477256   
C13      C      0.566410000000     0.544360000000     0.598340000000     0.473566   
C14      C      0.544200000000     0.501990000000     0.425320000000     0.473707   
C15      C      0.549730000000     0.436110000000     0.536070000000     0.476672   
C16      C      0.561410000000     0.610550000000     0.488850000000     0.477138   
C17      C      0.040410000000     0.086210000000     0.873200000000     0.476853   
C18      C      0.021580000000     0.070790000000     0.050620000000     0.476538   
C19      C      0.120150000000     0.087240000000     0.971330000000     0.474243   
C20      C      0.941680000000     0.069860000000     0.951930000000     0.47606    
C21      C      0.031280000000     0.511100000000     0.991000000000     0.474913   
C22      C      0.065680000000     0.502760000000     0.166550000000     0.475831   
C23      C      0.960560000000     0.508300000000     0.097360000000     0.47479    
C24      C      0.136900000000     0.505840000000     0.060560000000     0.474349   
C25      C      0.558900000000     0.084910000000     0.969590000000     0.474409   
C26      C      0.528290000000     0.061710000000     0.144560000000     0.474773   
C27      C      0.632050000000     0.065840000000     0.071210000000     0.474755   
C28      C      0.454630000000     0.081020000000     0.043140000000     0.473453   
C29      C      0.572720000000     0.541690000000     0.930200000000     0.474472   
C30      C      0.519750000000     0.490160000000     0.093910000000     0.474873   
C31      C      0.631350000000     0.518540000000     0.040650000000     0.474906   
C32      C      0.460670000000     0.513080000000     0.983250000000     0.475883   
C33      C      0.701540000000     0.565600000000     0.066450000000     0.015114   
C34      C      0.884350000000     0.464980000000     0.106990000000     0.0181285  
C35      C      0.890810000000     0.551390000000     0.130060000000     0.0167798  
C36      C      0.838630000000     0.475100000000     0.079820000000    -0.103194   
C37      C      0.733780000000     0.562630000000     0.110340000000    -0.102991   
C38      C      0.842430000000     0.562310000000     0.107260000000    -0.102919   
C39      C      0.763870000000     0.517490000000     0.108020000000     0.0178485  
C40      C      0.812240000000     0.517450000000     0.101380000000     0.018295   
C41      C      0.705670000000     0.475010000000     0.058480000000     0.0172866  
C42      C      0.733290000000     0.473100000000     0.104830000000    -0.103333   
C43      C      0.391090000000     0.467670000000     0.952440000000     0.0168548  
C44      C      0.210380000000     0.550120000000     0.039710000000     0.0170068  
C45      C      0.211990000000     0.460380000000     0.048270000000     0.0155163  
C46      C      0.234520000000     0.545770000000     0.991590000000    -0.102818   
C47      C      0.345480000000     0.459280000000     0.981370000000    -0.102007   
C48      C      0.240010000000     0.455950000000     0.001700000000    -0.102703   
C49      C      0.315410000000     0.504510000000     0.987120000000     0.0171936  
C50      C      0.266860000000     0.502230000000     0.991800000000     0.0173045  
C51      C      0.385600000000     0.555640000000     0.965130000000     0.0192006  
C52      C      0.343060000000     0.550230000000     0.997990000000    -0.102443   
C53      C      0.868930000000     0.019310000000     0.946460000000     0.0171815  
C54      C      0.710430000000     0.104110000000     0.084690000000     0.0194693  
C55      C      0.705230000000     0.016180000000     0.077920000000     0.0176515  
C56      C      0.743010000000     0.108880000000     0.041810000000    -0.101212   
C57      C      0.834320000000     0.016090000000     0.988470000000    -0.101153   
C58      C      0.740680000000     0.014810000000     0.036630000000    -0.101123   
C59      C      0.807470000000     0.062600000000     0.999770000000     0.015965   
C60      C      0.767310000000     0.061900000000     0.027710000000     0.0158686  
C61      C      0.862380000000     0.107460000000     0.943520000000     0.0198589  
C62      C      0.831690000000     0.110150000000     0.987820000000    -0.101084   
C63      C      0.191570000000     0.139310000000     0.975310000000     0.0157079  
C64      C      0.377720000000     0.043200000000     0.022380000000     0.016783   
C65      C      0.381060000000     0.129580000000     0.049260000000     0.0156073  
C66      C      0.342770000000     0.057480000000     0.983590000000    -0.103041   
C67      C      0.233580000000     0.141900000000     0.010190000000    -0.103519   
C68      C      0.343110000000     0.143080000000     0.012450000000    -0.103403   
C69      C      0.264880000000     0.097740000000     0.006130000000     0.0186931  
C70      C      0.313220000000     0.099590000000     0.000280000000     0.0180187  
C71      C      0.199600000000     0.049240000000     0.971970000000     0.0177565  
C72      C      0.237490000000     0.051280000000     0.010350000000    -0.103709   
C73      C      0.521030000000     0.429800000000     0.158020000000     0.0171708  
C74      C      0.496420000000     0.513420000000     0.353150000000     0.0171182  
C75      C      0.576820000000     0.472170000000     0.349480000000     0.0164535  
C76      C      0.477190000000     0.478310000000     0.316630000000    -0.103536   
C77      C      0.547510000000     0.437360000000     0.204940000000    -0.103036   
C78      C      0.557350000000     0.437120000000     0.312140000000    -0.104007   
C79      C      0.518590000000     0.468950000000     0.237800000000     0.0177306  
C80      C      0.517150000000     0.460910000000     0.285370000000     0.0186804  
C81      C      0.476430000000     0.506860000000     0.168470000000     0.0179632  
C82      C      0.500120000000     0.515350000000     0.216390000000    -0.102258   
C83      C      0.618190000000     0.525560000000     0.856770000000     0.0172216  
C84      C      0.533150000000     0.574740000000     0.673370000000     0.0170643  
C85      C      0.612770000000     0.531470000000     0.671080000000     0.016713   
C86      C      0.552360000000     0.608260000000     0.712030000000    -0.104302   
C87      C      0.599420000000     0.522130000000     0.806070000000    -0.102355   
C88      C      0.631000000000     0.564370000000     0.710140000000    -0.103467   
C89      C      0.584650000000     0.570710000000     0.786650000000     0.0181819  
C90      C      0.590030000000     0.581910000000     0.739990000000     0.0186687  
C91      C      0.576440000000     0.604160000000     0.868340000000     0.0179067  
C92      C      0.553970000000     0.600940000000     0.819070000000    -0.103528   
C93      C      0.528660000000     0.950210000000     0.395640000000     0.017738   
C94      C      0.539650000000     0.089260000000     0.226890000000     0.0174034  
C95      C      0.492840000000     0.014790000000     0.210120000000     0.0173166  
C96      C      0.571680000000     0.062300000000     0.261770000000    -0.102893   
C97      C      0.511370000000     0.984580000000     0.357030000000    -0.101286   
C98      C      0.521670000000     0.986660000000     0.246600000000    -0.10194    
C99      C      0.552290000000     0.005420000000     0.328090000000     0.0162687  
C100     C      0.545420000000     0.019570000000     0.282420000000     0.0174495  
C101     C      0.610720000000     0.983600000000     0.391380000000     0.0178118  
C102     C      0.595570000000     0.022030000000     0.355870000000    -0.102369   
C103     C      0.599250000000     0.056880000000     0.897330000000     0.0177685  
C104     C      0.518160000000     0.071980000000     0.706510000000     0.0165073  
C105     C      0.599800000000     0.034530000000     0.716660000000     0.0174084  
C106     C      0.531500000000     0.111480000000     0.742210000000    -0.104009   
C107     C      0.577610000000     0.043210000000     0.849740000000    -0.102738   
C108     C      0.613160000000     0.073860000000     0.751450000000    -0.103377   
C109     C      0.561180000000     0.087220000000     0.822880000000     0.0188058  
C110     C      0.569000000000     0.092380000000     0.775640000000     0.018417   
C111     C      0.553480000000     0.134550000000     0.897430000000     0.0176083  
C112     C      0.529610000000     0.121290000000     0.850270000000    -0.103987   
C113     C      0.522210000000     0.688050000000     0.472190000000     0.0202829  
C114     C      0.615040000000     0.851490000000     0.599060000000     0.0189958  
C115     C      0.527600000000     0.849800000000     0.603990000000     0.0196682  
C116     C      0.616450000000     0.813960000000     0.559560000000    -0.101115   
C117     C      0.520240000000     0.722140000000     0.514240000000    -0.1011     
C118     C      0.522570000000     0.813860000000     0.563650000000    -0.100931   
C119     C      0.567840000000     0.746760000000     0.524480000000     0.016367   
C120     C      0.569040000000     0.788110000000     0.550940000000     0.0162812  
C121     C      0.609780000000     0.683190000000     0.472860000000     0.0182857  
C122     C      0.613980000000     0.719530000000     0.513330000000    -0.101076   
C123     C      0.502640000000     0.364310000000     0.558730000000     0.0179521  
C124     C      0.601730000000     0.169190000000     0.494650000000     0.0194445  
C125     C      0.513910000000     0.164700000000     0.492010000000     0.0185524  
C126     C      0.601320000000     0.215770000000     0.522790000000    -0.101493   
C127     C      0.503480000000     0.316850000000     0.531270000000    -0.1015     
C128     C      0.508060000000     0.211780000000     0.519110000000    -0.101506   
C129     C      0.551040000000     0.289920000000     0.533100000000     0.016539   
C130     C      0.553440000000     0.241950000000     0.522050000000     0.0164376  
C131     C      0.590280000000     0.364290000000     0.567310000000     0.020502   
C132     C      0.596570000000     0.319520000000     0.537390000000    -0.101744   
C133     C      0.093310000000     0.540540000000     0.241040000000     0.0185379  
C134     C      0.950590000000     0.537250000000     0.405610000000     0.0169446  
C135     C      0.026260000000     0.582040000000     0.420520000000     0.0191872  
C136     C      0.975700000000     0.503770000000     0.370470000000    -0.102723   
C137     C      0.056480000000     0.560790000000     0.275370000000    -0.102312   
C138     C      0.053130000000     0.550830000000     0.385200000000    -0.102565   
C139     C      0.032600000000     0.521160000000     0.303780000000     0.0169681  
C140     C      0.019340000000     0.528110000000     0.349640000000     0.0174242  
C141     C      0.054160000000     0.460230000000     0.242360000000     0.016706   
C142     C      0.014850000000     0.478500000000     0.275430000000    -0.102378   
C143     C      0.041630000000     0.475300000000     0.911880000000     0.0178708  
C144     C      0.925050000000     0.506900000000     0.736290000000     0.0172105  
C145     C      0.004070000000     0.464880000000     0.731150000000     0.0184025  
C146     C      0.941080000000     0.533790000000     0.781000000000    -0.103622   
C147     C      0.002700000000     0.458110000000     0.878560000000    -0.103172   
C148     C      0.021240000000     0.490020000000     0.775850000000    -0.102795   
C149     C      0.980020000000     0.500520000000     0.854150000000     0.0181884  
C150     C      0.979500000000     0.505560000000     0.806270000000     0.0183728  
C151     C      0.999400000000     0.554650000000     0.921530000000     0.0165049  
C152     C      0.960050000000     0.538150000000     0.887260000000    -0.103742   
C153     C      0.917370000000     0.024890000000     0.300440000000     0.0168077  
C154     C      0.035140000000     0.024080000000     0.123640000000     0.0183162  
C155     C      0.992020000000     0.103280000000     0.126770000000     0.016147   
C156     C      0.995330000000     0.000530000000     0.151730000000    -0.103614   
C157     C      0.933660000000     0.058810000000     0.260760000000    -0.103591   
C158     C      0.951970000000     0.080550000000     0.156450000000    -0.103472   
C159     C      0.971650000000     0.034850000000     0.230890000000     0.0186668  
C160     C      0.971540000000     0.037560000000     0.182830000000     0.0178482  
C161     C      0.995270000000     0.980810000000     0.297390000000     0.019465   
C162     C      0.013110000000     0.013480000000     0.258080000000    -0.103682   
C163     C      0.071960000000     0.053890000000     0.798050000000     0.018965   
C164     C      0.947880000000     0.049990000000     0.628500000000     0.0163179  
C165     C      0.027660000000     0.009070000000     0.623730000000     0.0178434  
C166     C      0.969810000000     0.091330000000     0.657160000000    -0.103275   
C167     C      0.040420000000     0.034480000000     0.758640000000    -0.102955   
C168     C      0.050530000000     0.049830000000     0.651330000000    -0.102731   
C169     C      0.017960000000     0.075110000000     0.730720000000     0.0184786  
C170     C      0.013680000000     0.073260000000     0.682820000000     0.0176147  
C171     C      0.026660000000     0.131360000000     0.799150000000     0.0173593  
C172     C      0.993390000000     0.113480000000     0.759830000000    -0.10351    
C173     C      0.004700000000     0.846520000000     0.469000000000     0.0189143  
C174     C      0.923680000000     0.687220000000     0.607370000000     0.0189332  
C175     C      0.011330000000     0.691340000000     0.607980000000     0.0186229  
C176     C      0.919390000000     0.724510000000     0.567840000000    -0.101003   
C177     C      0.010180000000     0.817520000000     0.514410000000    -0.101681   
C178     C      0.013110000000     0.726710000000     0.566740000000    -0.100906   
C179     C      0.964220000000     0.792320000000     0.529060000000     0.0165683  
C180     C      0.965530000000     0.751370000000     0.556280000000     0.0161976  
C181     C      0.917120000000     0.851940000000     0.477330000000     0.0175126  
C182     C      0.917510000000     0.819570000000     0.521240000000    -0.101449   
C183     C      0.938790000000     0.361220000000     0.533290000000     0.0171005  
C184     C      0.026410000000     0.180610000000     0.445530000000     0.0157092  
C185     C      0.937920000000     0.185900000000     0.453640000000     0.0179603  
C186     C      0.032840000000     0.221890000000     0.481160000000    -0.102175   
C187     C      0.945430000000     0.332540000000     0.487890000000    -0.102964   
C188     C      0.942630000000     0.222580000000     0.493220000000    -0.102648   
C189     C      0.988910000000     0.300670000000     0.492500000000     0.0174637  
C190     C      0.987810000000     0.251850000000     0.486740000000     0.0169313  
C191     C      0.027620000000     0.362010000000     0.545520000000     0.0154284  
C192     C      0.034230000000     0.328640000000     0.502630000000    -0.102811   
H1       H      0.754050000000     0.596420000000     0.112270000000     0.0409192  
H2       H      0.875020000000     0.453570000000     0.143540000000     0.0232687  
H3       H      0.731120000000     0.474260000000     0.028360000000     0.0252092  
H4       H      0.752260000000     0.438750000000     0.109020000000     0.040476   
H5       H      0.818390000000     0.441400000000     0.077580000000     0.0414094  
H6       H      0.825630000000     0.589030000000     0.130840000000     0.041114   
H7       H      0.675940000000     0.595450000000     0.071520000000     0.0325573  
H8       H      0.903140000000     0.434760000000     0.089530000000     0.0314254  
H9       H      0.707330000000     0.473480000000     0.134530000000     0.0487569  
H10      H      0.847970000000     0.578930000000     0.071970000000     0.0485752  
H11      H      0.683230000000     0.442340000000     0.056200000000     0.0316207  
H12      H      0.884940000000     0.544440000000     0.168370000000     0.0228759  
H13      H      0.711140000000     0.561190000000     0.142550000000     0.047714   
H14      H      0.847950000000     0.484500000000     0.042740000000     0.0505063  
H15      H      0.913540000000     0.583820000000     0.127430000000     0.0322668  
H16      H      0.724070000000     0.574990000000     0.035470000000     0.0246762  
H17      H      0.325630000000     0.430960000000     0.962180000000     0.0409262  
H18      H      0.238100000000     0.555790000000     0.067230000000     0.0242631  
H19      H      0.372240000000     0.560510000000     0.928390000000     0.0223482  
H20      H      0.322540000000     0.583710000000     0.995620000000     0.0412887  
H21      H      0.251190000000     0.579970000000     0.981440000000     0.0408544  
H22      H      0.263020000000     0.424010000000     0.005150000000     0.0409049  
H23      H      0.414480000000     0.435800000000     0.955830000000     0.0318159  
H24      H      0.187010000000     0.582180000000     0.039420000000     0.032302   
H25      H      0.356090000000     0.547920000000     0.035050000000     0.0517391  
H26      H      0.214820000000     0.449060000000     0.972170000000     0.0478679  
H27      H      0.405630000000     0.588510000000     0.974770000000     0.031295   
H28      H      0.237900000000     0.460520000000     0.077990000000     0.0247829  
H29      H      0.355100000000     0.445630000000     0.017030000000     0.0485224  
H30      H      0.206510000000     0.540000000000     0.964400000000     0.0501146  
H31      H      0.189310000000     0.428110000000     0.052550000000     0.0327252  
H32      H      0.381040000000     0.471090000000     0.914520000000     0.0234279  
H33      H      0.809290000000     0.986690000000     0.979700000000     0.0408266  
H34      H      0.732950000000     0.099310000000     0.116730000000     0.0214953  
H35      H      0.838540000000     0.103650000000     0.912310000000     0.0218959  
H36      H      0.805280000000     0.138840000000     0.980860000000     0.040754   
H37      H      0.769560000000     0.136660000000     0.051400000000     0.0404635  
H38      H      0.765860000000     0.985360000000     0.044870000000     0.0407325  
H39      H      0.893920000000     0.988530000000     0.947730000000     0.0315963  
H40      H      0.689900000000     0.137770000000     0.089370000000     0.030794   
H41      H      0.854190000000     0.121120000000     0.018280000000     0.0497695  
H42      H      0.721070000000     0.005270000000     0.003820000000     0.0480042  
H43      H      0.882310000000     0.141530000000     0.939200000000     0.0309591  
H44      H      0.725550000000     0.012260000000     0.111470000000     0.022059   
H45      H      0.854700000000     0.005520000000     0.020500000000     0.0475836  
H46      H      0.721810000000     0.122010000000     0.011260000000     0.0499484  
H47      H      0.680770000000     0.985050000000     0.075290000000     0.0316816  
H48      H      0.847990000000     0.016150000000     0.913210000000     0.0224745  
H49      H      0.252500000000     0.175610000000     0.001940000000     0.0411175  
H50      H      0.357370000000     0.030060000000     0.053520000000     0.0243478  
H51      H      0.217320000000     0.048740000000     0.936790000000     0.0241323  
H52      H      0.259280000000     0.018380000000     0.009700000000     0.0414222  
H53      H      0.322240000000     0.026120000000     0.971310000000     0.0412524  
H54      H      0.322610000000     0.173080000000     0.027780000000     0.0411606  
H55      H      0.166170000000     0.168460000000     0.984090000000     0.0322489  
H56      H      0.399840000000     0.013100000000     0.009100000000     0.0320229  
H57      H      0.219520000000     0.050810000000     0.045390000000     0.050308   
H58      H      0.360800000000     0.156360000000     0.979830000000     0.0478596  
H59      H      0.179760000000     0.015080000000     0.975880000000     0.0321864  
H60      H      0.363030000000     0.123940000000     0.083830000000     0.0249162  
H61      H      0.219790000000     0.144460000000     0.046950000000     0.0479876  
H62      H      0.363520000000     0.069040000000     0.952110000000     0.0496321  
H63      H      0.405480000000     0.160530000000     0.053660000000     0.0330122  
H64      H      0.205340000000     0.146590000000     0.939130000000     0.0245758  
H65      H      0.553580000000     0.401390000000     0.220610000000     0.0409436  
H66      H      0.507480000000     0.546680000000     0.334530000000     0.0233311  
H67      H      0.442060000000     0.488220000000     0.174790000000     0.0226392  
H68      H      0.475000000000     0.535100000000     0.239340000000     0.041871   
H69      H      0.446940000000     0.494140000000     0.296970000000     0.0415587  
H70      H      0.587390000000     0.426390000000     0.289010000000     0.0413651  
H71      H      0.544480000000     0.409450000000     0.133560000000     0.0302445  
H72      H      0.467130000000     0.523300000000     0.377670000000     0.0319619  
H73      H      0.531080000000     0.539480000000     0.211030000000     0.0513386  
H74      H      0.543720000000     0.404420000000     0.329960000000     0.04802    
H75      H      0.468150000000     0.541860000000     0.151670000000     0.0305911  
H76      H      0.596150000000     0.501480000000     0.331040000000     0.026428   
H77      H      0.582550000000     0.454430000000     0.198120000000     0.0483572  
H78      H      0.462210000000     0.446920000000     0.335680000000     0.0499588  
H79      H      0.602920000000     0.452800000000     0.372000000000     0.0305119  
H80      H      0.488770000000     0.407820000000     0.164890000000     0.0243935  
H81      H      0.626340000000     0.503480000000     0.784260000000     0.0419699  
H82      H      0.512240000000     0.545650000000     0.690400000000     0.0267774  
H83      H      0.610060000000     0.624990000000     0.865770000000     0.0246892  
H84      H      0.550540000000     0.638170000000     0.805650000000     0.0413509  
H85      H      0.521780000000     0.620220000000     0.733800000000     0.0414892  
H86      H      0.659540000000     0.546710000000     0.730790000000     0.0412944  
H87      H      0.622430000000     0.488910000000     0.871480000000     0.0313968  
H88      H      0.508500000000     0.595490000000     0.650420000000     0.029889   
H89      H      0.517920000000     0.584820000000     0.821640000000     0.0491432  
H90      H      0.648050000000     0.595970000000     0.693280000000     0.0490847  
H91      H      0.551720000000     0.624100000000     0.891880000000     0.0311002  
H92      H      0.600810000000     0.497360000000     0.687500000000     0.0231643  
H93      H      0.567400000000     0.498810000000     0.806140000000     0.0509192  
H94      H      0.568380000000     0.640490000000     0.695360000000     0.0481475  
H95      H      0.642830000000     0.522650000000     0.647090000000     0.0312612  
H96      H      0.654160000000     0.542070000000     0.855480000000     0.0228892  
H97      H      0.484330000000     0.965750000000     0.335610000000     0.0408889  
H98      H      0.509680000000     0.105650000000     0.246830000000     0.024777   
H99      H      0.622870000000     0.951450000000     0.371530000000     0.0237171  
H100     H      0.626380000000     0.028730000000     0.332130000000     0.0413924  
H101     H      0.582300000000     0.088180000000     0.289690000000     0.0417534  
H102     H      0.498320000000     0.959200000000     0.262500000000     0.0410725  
H103     H      0.498750000000     0.941370000000     0.419820000000     0.0304568  
H104     H      0.560600000000     0.118570000000     0.210360000000     0.0313038  
H105     H      0.586900000000     0.055740000000     0.374910000000     0.0493397  
H106     H      0.550200000000     0.966850000000     0.227700000000     0.0507241  
H107     H      0.641310000000     0.997200000000     0.412320000000     0.0315289  
H108     H      0.460490000000     0.028840000000     0.228000000000     0.0227123  
H109     H      0.492720000000     0.014930000000     0.374420000000     0.0504549  
H110     H      0.604260000000     0.049690000000     0.243310000000     0.0489379  
H111     H      0.480820000000     0.990260000000     0.181570000000     0.0310542  
H112     H      0.540050000000     0.916390000000     0.378240000000     0.0224279  
H113     H      0.603200000000     0.020610000000     0.830020000000     0.0421498  
H114     H      0.497960000000     0.043580000000     0.725390000000     0.0262867  
H115     H      0.585320000000     0.156950000000     0.889960000000     0.025045   
H116     H      0.523410000000     0.155100000000     0.830490000000     0.0414629  
H117     H      0.498560000000     0.122900000000     0.760660000000     0.0415839  
H118     H      0.640950000000     0.061330000000     0.776390000000     0.0418182  
H119     H      0.606220000000     0.023880000000     0.918200000000     0.030542   
H120     H      0.494310000000     0.087630000000     0.679190000000     0.0302048  
H121     H      0.494720000000     0.103940000000     0.857100000000     0.0486071  
H122     H      0.629500000000     0.103860000000     0.731340000000     0.0501522  
H123     H      0.528170000000     0.156290000000     0.918710000000     0.0295051  
H124     H      0.587390000000     0.002860000000     0.737050000000     0.0229929  
H125     H      0.545950000000     0.020340000000     0.856310000000     0.0509281  
H126     H      0.545990000000     0.142930000000     0.722930000000     0.0482029  
H127     H      0.632210000000     0.023430000000     0.697000000000     0.0319258  
H128     H      0.634190000000     0.074240000000     0.890610000000     0.0225668  
H129     H      0.492030000000     0.748560000000     0.505690000000     0.0406072  
H130     H      0.616780000000     0.832560000000     0.633660000000     0.0217631  
H131     H      0.610890000000     0.703040000000     0.438740000000     0.0226393  
H132     H      0.642880000000     0.744490000000     0.502970000000     0.0410033  
H133     H      0.644780000000     0.788180000000     0.569550000000     0.0408076  
H134     H      0.494880000000     0.788000000000     0.575130000000     0.0404812  
H135     H      0.488670000000     0.667070000000     0.470280000000     0.0304303  
H136     H      0.646930000000     0.874860000000     0.596550000000     0.0311503  
H137     H      0.625270000000     0.700280000000     0.545860000000     0.0486761  
H138     H      0.509500000000     0.833000000000     0.531710000000     0.049827   
H139     H      0.640900000000     0.658670000000     0.473620000000     0.031301   
H140     H      0.531010000000     0.829630000000     0.637770000000     0.02164    
H141     H      0.509230000000     0.701800000000     0.546220000000     0.0503244  
H142     H      0.627140000000     0.831910000000     0.526120000000     0.0496587  
H143     H      0.494870000000     0.871980000000     0.606410000000     0.0308516  
H144     H      0.524730000000     0.709700000000     0.439240000000     0.0216926  
H145     H      0.474270000000     0.294980000000     0.546420000000     0.0407774  
H146     H      0.602190000000     0.178210000000     0.456300000000     0.0212245  
H147     H      0.586040000000     0.353180000000     0.604890000000     0.0216152  
H148     H      0.625530000000     0.299130000000     0.554850000000     0.0406724  
H149     H      0.629950000000     0.237980000000     0.507000000000     0.0404836  
H150     H      0.479170000000     0.231430000000     0.500720000000     0.0407228  
H151     H      0.471360000000     0.385630000000     0.547160000000     0.0312047  
H152     H      0.635030000000     0.149310000000     0.502530000000     0.0305497  
H153     H      0.608510000000     0.329940000000     0.501350000000     0.0502097  
H154     H      0.496110000000     0.203620000000     0.555710000000     0.0485953  
H155     H      0.623090000000     0.386380000000     0.565190000000     0.0303816  
H156     H      0.514580000000     0.172950000000     0.453490000000     0.0221018  
H157     H      0.494990000000     0.324260000000     0.493580000000     0.0479511  
H158     H      0.610790000000     0.207890000000     0.560170000000     0.0492935  
H159     H      0.482370000000     0.141710000000     0.498660000000     0.0314928  
H160     H      0.498030000000     0.356130000000     0.596980000000     0.0230057  
H161     H      0.073550000000     0.588860000000     0.297050000000     0.0411981  
H162     H      0.935040000000     0.567800000000     0.385660000000     0.024505   
H163     H      0.083390000000     0.445100000000     0.264260000000     0.0243744  
H164     H      0.004550000000     0.448240000000     0.298810000000     0.0414549  
H165     H      0.949440000000     0.494370000000     0.342600000000     0.0414592  
H166     H      0.082000000000     0.572280000000     0.369240000000     0.0411323  
H167     H      0.106660000000     0.569540000000     0.217620000000     0.0306438  
H168     H      0.921060000000     0.517400000000     0.422910000000     0.030532   
H169     H      0.983290000000     0.489340000000     0.254300000000     0.0489055  
H170     H      0.070900000000     0.521450000000     0.404970000000     0.0515997  
H171     H      0.039550000000     0.430960000000     0.220050000000     0.0320007  
H172     H      0.012970000000     0.614200000000     0.401450000000     0.0222405  
H173     H      0.028430000000     0.579180000000     0.254460000000     0.051432   
H174     H      0.986740000000     0.470390000000     0.388830000000     0.0482408  
H175     H      0.051020000000     0.594610000000     0.448570000000     0.0295945  
H176     H      0.123970000000     0.527130000000     0.262070000000     0.0224903  
H177     H      0.016630000000     0.430560000000     0.853990000000     0.0413578  
H178     H      0.905720000000     0.473950000000     0.747160000000     0.025138   
H179     H      0.026160000000     0.575620000000     0.901270000000     0.0254622  
H180     H      0.946700000000     0.570230000000     0.868270000000     0.0417149  
H181     H      0.909180000000     0.538780000000     0.803680000000     0.041722   
H182     H      0.047230000000     0.466810000000     0.794260000000     0.0418333  
H183     H      0.056250000000     0.444170000000     0.931570000000     0.0308479  
H184     H      0.899930000000     0.530010000000     0.716250000000     0.0305428  
H185     H      0.930060000000     0.522530000000     0.907690000000     0.0482757  
H186     H      0.041140000000     0.522700000000     0.765310000000     0.0513692  
H187     H      0.983350000000     0.578760000000     0.948460000000     0.0306875  
H188     H      0.988910000000     0.429640000000     0.741510000000     0.0225299  
H189     H      0.974890000000     0.439830000000     0.899880000000     0.0503797  
H190     H      0.955190000000     0.569600000000     0.771180000000     0.0488307  
H191     H      0.034910000000     0.457740000000     0.707560000000     0.0305223  
H192     H      0.071070000000     0.490410000000     0.890260000000     0.0223314  
H193     H      0.901710000000     0.068010000000     0.239490000000     0.0415423  
H194     H      0.063240000000     0.035800000000     0.148810000000     0.0224585  
H195     H      0.978940000000     0.948670000000     0.280790000000     0.0223621  
H196     H      0.039010000000     0.993740000000     0.235980000000     0.0421538  
H197     H      0.008550000000     0.968740000000     0.171120000000     0.0416149  
H198     H      0.937690000000     0.108590000000     0.180350000000     0.0413203  
H199     H      0.892830000000     0.044670000000     0.324300000000     0.0308917  
H200     H      0.051410000000     0.997280000000     0.099510000000     0.0311166  
H201     H      0.033310000000     0.043430000000     0.274410000000     0.0517942  
H202     H      0.922740000000     0.068700000000     0.132710000000     0.0481552  
H203     H      0.025910000000     0.968350000000     0.318990000000     0.0304775  
H204     H      0.018140000000     0.120090000000     0.151210000000     0.0251672  
H205     H      0.948290000000     0.092230000000     0.276350000000     0.048644   
H206     H      0.968400000000     0.986660000000     0.126400000000     0.0512643  
H207     H      0.976490000000     0.132000000000     0.104360000000     0.030604   
H208     H      0.897270000000     0.994720000000     0.284320000000     0.0252957  
H209     H      0.061180000000     0.008900000000     0.737040000000     0.0417123  
H210     H      0.932950000000     0.023270000000     0.653610000000     0.0249648  
H211     H      0.056460000000     0.151520000000     0.782640000000     0.0247332  
H212     H      0.983710000000     0.145000000000     0.737860000000     0.0416837  
H213     H      0.942020000000     0.105050000000     0.681530000000     0.0414007  
H214     H      0.082670000000     0.037260000000     0.670280000000     0.0411521  
H215     H      0.084790000000     0.023770000000     0.820360000000     0.0303658  
H216     H      0.918100000000     0.064340000000     0.606860000000     0.0307297  
H217     H      0.960430000000     0.098450000000     0.775670000000     0.0488451  
H218     H      0.063380000000     0.077070000000     0.625670000000     0.0510575  
H219     H      0.006590000000     0.156400000000     0.822300000000     0.0310201  
H220     H      0.017240000000     0.980580000000     0.649180000000     0.0227963  
H221     H      0.011240000000     0.013310000000     0.774930000000     0.051794   
H222     H      0.980130000000     0.120840000000     0.632870000000     0.0481161  
H223     H      0.054180000000     0.993340000000     0.599070000000     0.0309402  
H224     H      0.103690000000     0.070820000000     0.781540000000     0.0223015  
H225     H      0.039330000000     0.791750000000     0.507290000000     0.0406299  
H226     H      0.922750000000     0.706350000000     0.641890000000     0.0216784  
H227     H      0.911740000000     0.828950000000     0.445640000000     0.0231543  
H228     H      0.887000000000     0.794870000000     0.516580000000     0.0408928  
H229     H      0.891240000000     0.749720000000     0.579540000000     0.0407363  
H230     H      0.040790000000     0.753410000000     0.576200000000     0.0405061  
H231     H      0.038000000000     0.866890000000     0.462500000000     0.031548   
H232     H      0.892350000000     0.663000000000     0.606400000000     0.0310033  
H233     H      0.910640000000     0.841920000000     0.553040000000     0.0485116  
H234     H      0.024740000000     0.707300000000     0.534420000000     0.0487962  
H235     H      0.886270000000     0.876700000000     0.479530000000     0.0316772  
H236     H      0.009370000000     0.712060000000     0.641550000000     0.0223074  
H237     H      0.021520000000     0.841680000000     0.543540000000     0.0495171  
H238     H      0.907040000000     0.706220000000     0.535150000000     0.0495784  
H239     H      0.044770000000     0.670160000000     0.608710000000     0.0310917  
H240     H      0.000070000000     0.821140000000     0.439000000000     0.0227035  
H241     H      0.911940000000     0.314430000000     0.478360000000     0.040666   
H242     H      0.026750000000     0.196050000000     0.409260000000     0.0237148  
H243     H      0.027270000000     0.339580000000     0.578030000000     0.0239963  
H244     H      0.065090000000     0.305580000000     0.511100000000     0.0409149  
H245     H      0.063080000000     0.243310000000     0.467540000000     0.0408385  
H246     H      0.909250000000     0.243090000000     0.495350000000     0.0410706  
H247     H      0.906890000000     0.384310000000     0.529200000000     0.0316201  
H248     H      0.057410000000     0.156120000000     0.448320000000     0.032012   
H249     H      0.043490000000     0.350310000000     0.470980000000     0.0475803  
H250     H      0.945380000000     0.203220000000     0.527490000000     0.0503765  
H251     H      0.059060000000     0.385970000000     0.548010000000     0.032341   
H252     H      0.934500000000     0.205230000000     0.419390000000     0.0231896  
H253     H      0.951890000000     0.358080000000     0.458390000000     0.0491374  
H254     H      0.042850000000     0.207040000000     0.516240000000     0.0475853  
H255     H      0.904660000000     0.165150000000     0.459100000000     0.0318309  
H256     H      0.931930000000     0.336030000000     0.562990000000     0.0245246  
N1       N      0.913370000000     0.508710000000     0.109150000000    -0.18928    
N2       N      0.677380000000     0.519600000000     0.056310000000    -0.188734   
N3       N      0.184390000000     0.505400000000     0.049910000000    -0.188575   
N4       N      0.414710000000     0.512060000000     0.967440000000    -0.18943    
N5       N      0.679980000000     0.062070000000     0.078590000000    -0.189284   
N6       N      0.893520000000     0.065560000000     0.946660000000    -0.189503   
N7       N      0.406530000000     0.085010000000     0.036570000000    -0.188299   
N8       N      0.168520000000     0.091750000000     0.975070000000    -0.188545   
N9       N      0.538130000000     0.493350000000     0.378080000000    -0.188361   
N10      N      0.506490000000     0.476330000000     0.138340000000    -0.189117   
N11      N      0.572140000000     0.553040000000     0.645580000000    -0.188628   
N12      N      0.587200000000     0.555890000000     0.886230000000    -0.188844   
N13      N      0.520570000000     0.055480000000     0.191830000000    -0.189114   
N14      N      0.569520000000     0.970920000000     0.420820000000    -0.189336   
N15      N      0.561020000000     0.050370000000     0.685030000000    -0.188703   
N16      N      0.568510000000     0.091020000000     0.922700000000    -0.18923    
N17      N      0.570460000000     0.878410000000     0.596260000000    -0.189899   
N18      N      0.564420000000     0.657740000000     0.476540000000    -0.189954   
N19      N      0.558790000000     0.141500000000     0.505130000000    -0.189736   
N20      N      0.547530000000     0.390080000000     0.552220000000    -0.189821   
N21      N      0.985460000000     0.555560000000     0.439870000000    -0.189776   
N22      N      0.072620000000     0.500490000000     0.214280000000    -0.18942    
N23      N      0.966720000000     0.493260000000     0.707770000000    -0.189322   
N24      N      0.023190000000     0.513090000000     0.943430000000    -0.189155   
N25      N      0.016540000000     0.066350000000     0.098440000000    -0.189488   
N26      N      0.958950000000     0.005630000000     0.325770000000    -0.189818   
N27      N      0.984730000000     0.026660000000     0.599340000000    -0.189579   
N28      N      0.046090000000     0.090330000000     0.825470000000    -0.189836   
N29      N      0.968870000000     0.661400000000     0.603440000000    -0.189216   
N30      N      0.962550000000     0.877270000000     0.472380000000    -0.188943   
N31      N      0.980770000000     0.155640000000     0.452540000000    -0.188752   
N32      N      0.982360000000     0.388850000000     0.543300000000    -0.188397   
O1       O      0.938540000000     0.024920000000     0.532620000000    -0.559704   
O2       O      0.926070000000     0.015620000000     0.399230000000    -0.559269   
O3       O      0.927680000000     0.951820000000     0.470990000000    -0.556353   
O4       O      0.936930000000     0.087060000000     0.461050000000    -0.560847   
O5       O      0.015660000000     0.081050000000     0.453880000000    -0.55688    
O6       O      0.006470000000     0.945810000000     0.464370000000    -0.561202   
O7       O      0.004770000000     0.007590000000     0.392600000000    -0.561356   
O8       O      0.017270000000     0.017520000000     0.525710000000    -0.561827   
O9       O      0.010900000000     0.508580000000     0.641530000000    -0.559518   
O10      O      0.019780000000     0.544080000000     0.512330000000    -0.559944   
O11      O      0.011750000000     0.592210000000     0.593380000000    -0.557955   
O12      O      0.018760000000     0.460510000000     0.560350000000    -0.557135   
O13      O      0.939580000000     0.457280000000     0.557880000000    -0.559326   
O14      O      0.933010000000     0.590370000000     0.583920000000    -0.558896   
O15      O      0.941100000000     0.536390000000     0.505100000000    -0.558961   
O16      O      0.931690000000     0.511240000000     0.636820000000    -0.558143   
O17      O      0.602240000000     0.031230000000     0.617910000000    -0.562647   
O18      O      0.606290000000     0.993980000000     0.489260000000    -0.563781   
O19      O      0.601080000000     0.077580000000     0.533920000000    -0.561237   
O20      O      0.607210000000     0.947710000000     0.572760000000    -0.561065   
O21      O      0.527970000000     0.945110000000     0.575300000000    -0.559485   
O22      O      0.522090000000     0.072360000000     0.529030000000    -0.559497   
O23      O      0.527410000000     0.985390000000     0.489020000000    -0.554834   
O24      O      0.522920000000     0.032380000000     0.615420000000    -0.554544   
O25      O      0.524430000000     0.544030000000     0.580400000000    -0.558471   
O26      O      0.507830000000     0.511430000000     0.451140000000    -0.56014    
O27      O      0.511650000000     0.461390000000     0.532920000000    -0.557616   
O28      O      0.520650000000     0.592470000000     0.498670000000    -0.561924   
O29      O      0.599240000000     0.584810000000     0.490860000000    -0.559438   
O30      O      0.590310000000     0.454100000000     0.525520000000    -0.563438   
O31      O      0.586240000000     0.502150000000     0.443190000000    -0.556503   
O32      O      0.602910000000     0.535010000000     0.572620000000    -0.559053   
O33      O      0.032880000000     0.123830000000     0.898180000000    -0.559896   
O34      O      0.018880000000     0.112290000000     0.031270000000    -0.559046   
O35      O      0.093480000000     0.124650000000     0.972020000000    -0.55701    
O36      O      0.959950000000     0.111600000000     0.957140000000    -0.561638   
O37      O      0.968220000000     0.032380000000     0.951800000000    -0.558135   
O38      O      0.101810000000     0.045500000000     0.966320000000    -0.562167   
O39      O      0.028960000000     0.033270000000     0.025470000000    -0.562583   
O40      O      0.042830000000     0.044750000000     0.892640000000    -0.561423   
O41      O      0.038110000000     0.470360000000     0.010820000000    -0.561636   
O42      O      0.057580000000     0.464160000000     0.143290000000    -0.561214   
O43      O      0.981170000000     0.468470000000     0.087520000000    -0.559759   
O44      O      0.114540000000     0.466210000000     0.066590000000    -0.558781   
O45      O      0.114870000000     0.545970000000     0.064100000000    -0.55962    
O46      O      0.984170000000     0.547620000000     0.097070000000    -0.559544   
O47      O      0.066030000000     0.543540000000     0.145550000000    -0.557345   
O48      O      0.032710000000     0.549920000000     0.015340000000    -0.556455   
O49      O      0.553510000000     0.121670000000     0.996330000000    -0.558009   
O50      O      0.537910000000     0.103640000000     0.128590000000    -0.558999   
O51      O      0.612520000000     0.107400000000     0.070250000000    -0.55985    
O52      O      0.478930000000     0.118020000000     0.055020000000    -0.55963    
O53      O      0.475100000000     0.040200000000     0.038010000000    -0.5572     
O54      O      0.606940000000     0.027940000000     0.065010000000    -0.556886   
O55      O      0.526170000000     0.025590000000     0.116550000000    -0.557491   
O56      O      0.556080000000     0.042410000000     0.986630000000    -0.557735   
O57      O      0.560460000000     0.573380000000     0.960740000000    -0.560443   
O58      O      0.520630000000     0.534840000000     0.083250000000    -0.558391   
O59      O      0.605320000000     0.556300000000     0.043180000000    -0.558156   
O60      O      0.477420000000     0.551990000000     0.000640000000    -0.562493   
O61      O      0.486750000000     0.475370000000     0.980550000000    -0.557323   
O62      O      0.614530000000     0.479580000000     0.023440000000    -0.562091   
O63      O      0.531620000000     0.458330000000     0.063340000000    -0.558691   
O64      O      0.571580000000     0.496940000000     0.940690000000    -0.556282   
V1       V      0.929140000000     0.019950000000     0.466250000000     1.38676    
V2       V      0.014190000000     0.012910000000     0.458850000000     1.39267    
V3       V      0.018480000000     0.526470000000     0.577170000000     1.38734    
V4       V      0.933160000000     0.523720000000     0.570700000000     1.38765    
V5       V      0.607360000000     0.012840000000     0.553580000000     1.39977    
V6       V      0.521870000000     0.008630000000     0.552200000000     1.37904    
V7       V      0.513000000000     0.527500000000     0.516120000000     1.39019    
V8       V      0.597800000000     0.518820000000     0.507570000000     1.38964    
V9       V      0.026090000000     0.121280000000     0.964950000000     1.38786    
V10      V      0.035620000000     0.035810000000     0.958810000000     1.39526    
V11      V      0.047780000000     0.464060000000     0.076910000000     1.39311    
V12      V      0.049550000000     0.550030000000     0.080610000000     1.38477    
V13      V      0.545910000000     0.115890000000     0.062970000000     1.38988    
V14      V      0.540820000000     0.030810000000     0.051090000000     1.38277    
V15      V      0.540680000000     0.557160000000     0.022850000000     1.3919     
V16      V      0.551350000000     0.474500000000     0.001080000000     1.38649    


