data_structure

_audit_creation_method RASPA-1.0
_audit_creation_date 2023-6-5
_audit_author_name 'Poobodin Mano'

_cell_length_a    61.0009
_cell_length_b    61.831
_cell_length_c    37.2316
_cell_angle_alpha 89.9588
_cell_angle_beta  90.0417
_cell_angle_gamma 119.927
_cell_volume      121704

_symmetry_cell_setting          triclinic
_symmetry_space_group_name_Hall 'P 1'
_symmetry_space_group_name_H-M  'P 1'
_symmetry_Int_Tables_number     1

_symmetry_equiv_pos_as_xyz 'x,y,z'

loop_
_atom_site_label
_atom_site_type_symbol
_atom_site_fract_x
_atom_site_fract_y
_atom_site_fract_z
_atom_site_charge
C1       C      0.857080000000     0.658700000000     0.590190000000     0.475787   
C2       C      0.860240000000     0.643930000000     0.723420000000     0.475988   
C3       C      0.812130000000     0.617170000000     0.655030000000     0.474683   
C4       C      0.904500000000     0.684610000000     0.658400000000     0.473877   
C5       C      0.211510000000     0.855080000000     0.743920000000     0.475595   
C6       C      0.179510000000     0.834670000000     0.871890000000     0.473549   
C7       C      0.240420000000     0.864390000000     0.829950000000     0.472811   
C8       C      0.150360000000     0.825530000000     0.783810000000     0.475105   
C9       C      0.514080000000     0.000640000000     0.036110000000     0.474707   
C10      C      0.555270000000     0.023170000000     0.913140000000     0.474215   
C11      C      0.577510000000     0.035100000000     0.005380000000     0.475062   
C12      C      0.492010000000     0.988760000000     0.944060000000     0.47495    
C13      C      0.208950000000     0.378320000000     0.254710000000     0.470687   
C14      C      0.190170000000     0.377790000000     0.387650000000     0.472104   
C15      C      0.154510000000     0.364820000000     0.305220000000     0.476643   
C16      C      0.245560000000     0.391790000000     0.337100000000     0.471901   
C17      C      0.879110000000     0.219990000000     0.068940000000     0.477279   
C18      C      0.866200000000     0.203560000000     0.202970000000     0.474899   
C19      C      0.918610000000     0.242460000000     0.146400000000     0.474694   
C20      C      0.825760000000     0.180470000000     0.125630000000     0.473638   
C21      C      0.515420000000     0.487730000000     0.557990000000     0.475733   
C22      C      0.541330000000     0.481450000000     0.431340000000     0.479436   
C23      C      0.487870000000     0.474120000000     0.465200000000     0.47802    
C24      C      0.571130000000     0.495070000000     0.522330000000     0.47745    
C25      C      0.222940000000     0.379440000000     0.753850000000     0.480196   
C26      C      0.223570000000     0.361190000000     0.885530000000     0.482805   
C27      C      0.193280000000     0.387970000000     0.832770000000     0.472507   
C28      C      0.251310000000     0.353340000000     0.805780000000     0.471357   
C29      C      0.377210000000     0.190510000000     0.713970000000     0.473043   
C30      C      0.381790000000     0.203790000000     0.579460000000     0.477188   
C31      C      0.364910000000     0.229190000000     0.656280000000     0.47429    
C32      C      0.395150000000     0.167650000000     0.634250000000     0.476145   
C33      C      0.016760000000     0.485470000000     0.037820000000     0.476212   
C34      C      0.004660000000     0.508910000000     0.912000000000     0.473562   
C35      C      0.984850000000     0.515990000000     0.000000000000     0.471992   
C36      C      0.036090000000     0.478970000000     0.949000000000     0.474502   
C37      C      0.668540000000     0.826920000000     0.252320000000     0.472343   
C38      C      0.666500000000     0.812850000000     0.386840000000     0.471706   
C39      C      0.685970000000     0.791340000000     0.309220000000     0.472816   
C40      C      0.649210000000     0.847930000000     0.331220000000     0.475476   
C41      C      0.818490000000     0.638790000000     0.084720000000     0.475307   
C42      C      0.822550000000     0.640560000000     0.220120000000     0.475229   
C43      C      0.792320000000     0.660510000000     0.157440000000     0.478064   
C44      C      0.846710000000     0.620370000000     0.143690000000     0.476119   
C45      C      0.534880000000     0.017610000000     0.542700000000     0.474835   
C46      C      0.519640000000     0.010380000000     0.408180000000     0.47548    
C47      C      0.551240000000     0.991030000000     0.469350000000     0.474604   
C48      C      0.502640000000     0.037470000000     0.481350000000     0.472972   
C49      C      0.378890000000     0.187360000000     0.205400000000     0.470589   
C50      C      0.364320000000     0.151400000000     0.079410000000     0.477369   
C51      C      0.392810000000     0.213220000000     0.115240000000     0.472432   
C52      C      0.350250000000     0.126280000000     0.169110000000     0.472755   
C53      C      0.515820000000     0.507390000000     0.065850000000     0.47277    
C54      C      0.508370000000     0.504470000000     0.929950000000     0.472055   
C55      C      0.493860000000     0.458800000000     0.999490000000     0.474396   
C56      C      0.530350000000     0.552610000000     0.996000000000     0.473979   
C57      C      0.170290000000     0.826320000000     0.244760000000     0.478031   
C58      C      0.192950000000     0.844690000000     0.376280000000     0.478707   
C59      C      0.209160000000     0.881300000000     0.296110000000     0.474966   
C60      C      0.154210000000     0.789580000000     0.326800000000     0.47262    
C61      C      0.002180000000     0.506520000000     0.539430000000     0.478859   
C62      C      0.003070000000     0.492560000000     0.405610000000     0.477224   
C63      C      0.023780000000     0.546320000000     0.461660000000     0.474839   
C64      C      0.981620000000     0.452990000000     0.483270000000     0.475335   
C65      C      0.825990000000     0.156340000000     0.570350000000     0.471031   
C66      C      0.837490000000     0.174050000000     0.704090000000     0.472848   
C67      C      0.857880000000     0.211030000000     0.622450000000     0.471531   
C68      C      0.805220000000     0.118840000000     0.651890000000     0.47172    
C69      C      0.653160000000     0.815360000000     0.759360000000     0.476696   
C70      C      0.658540000000     0.850240000000     0.884580000000     0.478018   
C71      C      0.635900000000     0.789890000000     0.848710000000     0.471932   
C72      C      0.676270000000     0.877170000000     0.796130000000     0.475168   
C73      C      0.726700000000     0.940590000000     0.765290000000    -0.0323645  
C74      C      0.749680000000     0.055910000000     0.675570000000    -0.0321712  
C75      C      0.804890000000     0.080970000000     0.672140000000    -0.000945011
C76      C      0.764450000000     0.084370000000     0.672330000000    -0.000819071
C77      C      0.747300000000     0.016860000000     0.744060000000    -0.054651   
C78      C      0.726130000000     0.977320000000     0.695080000000    -0.0546085  
C79      C      0.750270000000     0.021920000000     0.707190000000     0.0607506  
C80      C      0.787490000000     0.052770000000     0.675360000000    -0.0319697  
C81      C      0.723410000000     0.972240000000     0.732010000000     0.0598408  
C82      C      0.687300000000     0.940610000000     0.764390000000    -0.0445863  
C83      C      0.734000000000     0.992300000000     0.756480000000    -0.0566522  
C84      C      0.671650000000     0.912460000000     0.772760000000     0.0431092  
C85      C      0.714000000000     0.912510000000     0.770870000000    -0.000972807
C86      C      0.739420000000     0.001960000000     0.682640000000    -0.056978   
C87      C      0.972540000000     0.389320000000     0.505570000000    -0.0326724  
C88      C      0.874740000000     0.276270000000     0.595330000000    -0.0319818  
C89      C      0.898770000000     0.245740000000     0.602770000000    -0.000803857
C90      C      0.857790000000     0.248100000000     0.599620000000    -0.000897454
C91      C      0.916690000000     0.311370000000     0.527090000000    -0.0548262  
C92      C      0.933090000000     0.351870000000     0.573940000000    -0.0542002  
C93      C      0.912160000000     0.307040000000     0.563960000000     0.0608391  
C94      C      0.913070000000     0.274160000000     0.598440000000    -0.032062   
C95      C      0.937020000000     0.356190000000     0.536920000000     0.0599046  
C96      C      0.931380000000     0.384970000000     0.499600000000    -0.0447088  
C97      C      0.929110000000     0.335680000000     0.513580000000    -0.0564987  
C98      C      0.942080000000     0.412750000000     0.490490000000     0.0445027  
C99      C      0.986580000000     0.417560000000     0.500380000000     0.000794918
C100     C      0.920910000000     0.327520000000     0.587500000000    -0.0571531  
C101     C      0.074820000000     0.612680000000     0.443400000000    -0.0326612  
C102     C      0.098220000000     0.728180000000     0.354460000000    -0.0320595  
C103     C      0.153100000000     0.751360000000     0.347140000000    -0.0012242  
C104     C      0.113840000000     0.756580000000     0.350850000000    -0.000928218
C105     C      0.095390000000     0.688610000000     0.421790000000    -0.0548693  
C106     C      0.073300000000     0.648970000000     0.373080000000    -0.0542326  
C107     C      0.098200000000     0.693540000000     0.384870000000     0.0609191  
C108     C      0.135000000000     0.723340000000     0.351200000000    -0.031659   
C109     C      0.070960000000     0.643990000000     0.410040000000     0.0598938  
C110     C      0.035120000000     0.611900000000     0.442470000000    -0.0446635  
C111     C      0.081840000000     0.664100000000     0.434390000000    -0.0565419  
C112     C      0.019720000000     0.583570000000     0.449580000000     0.0441077  
C113     C      0.062850000000     0.584560000000     0.447740000000     0.000562872
C114     C      0.086700000000     0.673530000000     0.360470000000    -0.0572202  
C115     C      0.577280000000     0.621220000000     0.984540000000    -0.032755   
C116     C      0.586630000000     0.726980000000     0.882580000000    -0.0320102  
C117     C      0.641620000000     0.758700000000     0.881980000000    -0.00128223 
C118     C      0.597990000000     0.754880000000     0.875390000000    -0.00130681 
C119     C      0.588890000000     0.694170000000     0.957400000000    -0.0548523  
C120     C      0.572140000000     0.652910000000     0.911940000000    -0.0543173  
C121     C      0.591670000000     0.697800000000     0.920190000000     0.0606997  
C122     C      0.627720000000     0.730550000000     0.888730000000    -0.0319407  
C123     C      0.569410000000     0.649270000000     0.949180000000     0.0601212  
C124     C      0.535760000000     0.616430000000     0.984270000000    -0.044899   
C125     C      0.577940000000     0.670160000000     0.971900000000    -0.05673    
C126     C      0.523080000000     0.588440000000     0.994220000000     0.0450535  
C127     C      0.568040000000     0.593520000000     0.989090000000     0.00185935 
C128     C      0.583230000000     0.676950000000     0.897440000000    -0.0570966  
C129     C      0.267060000000     0.942600000000     0.273330000000    -0.032483   
C130     C      0.298550000000     0.064980000000     0.201910000000    -0.0317171  
C131     C      0.353530000000     0.091200000000     0.194850000000    -0.00144272 
C132     C      0.312990000000     0.093420000000     0.200340000000    -0.00165782 
C133     C      0.298650000000     0.022970000000     0.263740000000    -0.0546383  
C134     C      0.271830000000     0.986550000000     0.211730000000    -0.0544365  
C135     C      0.300230000000     0.029980000000     0.227670000000     0.0607391  
C136     C      0.336930000000     0.062720000000     0.196850000000    -0.0322239  
C137     C      0.269690000000     0.979630000000     0.247970000000     0.0599759  
C138     C      0.232990000000     0.950910000000     0.282330000000    -0.0443592  
C139     C      0.283680000000     0.998040000000     0.273900000000    -0.0566438  
C140     C      0.213460000000     0.923160000000     0.288770000000     0.0432838  
C141     C      0.250010000000     0.914400000000     0.274820000000     0.000137897
C142     C      0.287080000000     0.011490000000     0.201520000000    -0.0568694  
C143     C      0.490130000000     0.395990000000     0.005960000000    -0.0326861  
C144     C      0.401250000000     0.273780000000     0.081900000000    -0.0320115  
C145     C      0.430900000000     0.248790000000     0.089060000000    -0.00152231 
C146     C      0.387550000000     0.245340000000     0.083820000000    -0.00132759 
C147     C      0.440940000000     0.316060000000     0.019460000000    -0.0549313  
C148     C      0.454290000000     0.352710000000     0.072230000000    -0.0543498  
C149     C      0.437590000000     0.309190000000     0.055740000000     0.0606444  
C150     C      0.442430000000     0.277150000000     0.086540000000    -0.0321864  
C151     C      0.457320000000     0.359540000000     0.035910000000     0.0599294  
C152     C      0.447700000000     0.388780000000     0.006990000000    -0.0448251  
C153     C      0.450720000000     0.340990000000     0.009500000000    -0.0566576  
C154     C      0.456260000000     0.416700000000     0.003140000000     0.0446588  
C155     C      0.502310000000     0.424330000000     0.005000000000     0.000793918
C156     C      0.444510000000     0.327760000000     0.082190000000    -0.0571347  
C157     C      0.676970000000     0.815780000000     0.669600000000    -0.0329223  
C158     C      0.641570000000     0.788070000000     0.479260000000    -0.0318736  
C159     C      0.686880000000     0.828210000000     0.445430000000    -0.000795691
C160     C      0.639950000000     0.794740000000     0.440170000000    -0.00161607 
C161     C      0.657290000000     0.824450000000     0.558770000000    -0.0545129  
C162     C      0.658780000000     0.784260000000     0.590690000000    -0.0548426  
C163     C      0.659320000000     0.807040000000     0.537050000000     0.0605675  
C164     C      0.685760000000     0.819160000000     0.483980000000    -0.032204   
C165     C      0.656070000000     0.801310000000     0.612350000000     0.0603875  
C166     C      0.631160000000     0.796670000000     0.665740000000    -0.0446347  
C167     C      0.655930000000     0.821830000000     0.596110000000    -0.0567431  
C168     C      0.628170000000     0.789160000000     0.705510000000     0.0426939  
C169     C      0.675320000000     0.808610000000     0.709270000000    -0.00207296 
C170     C      0.660660000000     0.787170000000     0.553360000000    -0.0569455  
C171     C      0.685850000000     0.864940000000     0.972930000000    -0.0318851  
C172     C      0.646060000000     0.825300000000     0.158650000000    -0.0322114  
C173     C      0.693730000000     0.847030000000     0.198100000000    -0.00198423 
C174     C      0.647330000000     0.813060000000     0.193700000000    -0.00103714 
C175     C      0.670000000000     0.828790000000     0.076380000000    -0.054775   
C176     C      0.665470000000     0.870490000000     0.059740000000    -0.0546661  
C177     C      0.669460000000     0.843750000000     0.104180000000     0.0605672  
C178     C      0.690160000000     0.857240000000     0.162460000000    -0.0317723  
C179     C      0.666450000000     0.855760000000     0.031890000000     0.060102   
C180     C      0.639990000000     0.844800000000     0.979180000000    -0.0447684  
C181     C      0.668250000000     0.834500000000     0.040580000000    -0.0565972  
C182     C      0.637390000000     0.853530000000     0.941450000000     0.0424791  
C183     C      0.684630000000     0.874710000000     0.935770000000    -0.00205667 
C184     C      0.666690000000     0.864460000000     0.095640000000    -0.0569926  
C185     C      0.780720000000     0.710040000000     0.187210000000    -0.032053   
C186     C      0.688660000000     0.737790000000     0.271950000000    -0.0319343  
C187     C      0.723530000000     0.786110000000     0.303530000000    -0.00190806 
C188     C      0.679450000000     0.748700000000     0.301320000000    -0.00208313 
C189     C      0.736010000000     0.721330000000     0.268390000000    -0.0547302  
C190     C      0.732390000000     0.722990000000     0.193660000000    -0.0546415  
C191     C      0.724800000000     0.734190000000     0.253190000000     0.0605474  
C192     C      0.731070000000     0.773970000000     0.273870000000    -0.0319943  
C193     C      0.743460000000     0.709990000000     0.208870000000     0.0601173  
C194     C      0.740980000000     0.670960000000     0.191930000000    -0.0446252  
C195     C      0.745380000000     0.709420000000     0.246550000000    -0.0565432  
C196     C      0.749580000000     0.658440000000     0.163890000000     0.0422451  
C197     C      0.790190000000     0.699260000000     0.158190000000    -0.00294105 
C198     C      0.723230000000     0.735120000000     0.215510000000    -0.0568998  
C199     C      0.648940000000     0.904790000000     0.362450000000    -0.0318672  
C200     C      0.560750000000     0.939390000000     0.442550000000    -0.0319214  
C201     C      0.592010000000     0.992010000000     0.460740000000    -0.00154159 
C202     C      0.551590000000     0.951140000000     0.470610000000    -0.00162435 
C203     C      0.610620000000     0.928470000000     0.438030000000    -0.0550258  
C204     C      0.602770000000     0.923020000000     0.363770000000    -0.054359   
C205     C      0.598090000000     0.939380000000     0.420950000000     0.0609618  
C206     C      0.599740000000     0.978750000000     0.433030000000    -0.0321269  
C207     C      0.615000000000     0.911780000000     0.380940000000     0.0597556  
C208     C      0.606690000000     0.869960000000     0.370750000000    -0.0443249  
C209     C      0.619000000000     0.914760000000     0.418350000000    -0.0563873  
C210     C      0.611690000000     0.852950000000     0.345990000000     0.0425386  
C211     C      0.655680000000     0.890300000000     0.335780000000    -0.00285196 
C212     C      0.594350000000     0.936720000000     0.383510000000    -0.0571222  
C213     C      0.025730000000     0.520850000000     0.633480000000    -0.03185    
C214     C      0.979310000000     0.504140000000     0.817990000000    -0.0318995  
C215     C      0.024720000000     0.535850000000     0.860150000000    -0.000453803
C216     C      0.980560000000     0.495650000000     0.856030000000     4.11662e-05
C217     C      0.007730000000     0.500950000000     0.744260000000    -0.0548192  
C218     C      0.000880000000     0.536990000000     0.708740000000    -0.0545286  
C219     C      0.004780000000     0.518460000000     0.764280000000     0.0613249  
C220     C      0.020540000000     0.540670000000     0.821140000000    -0.0318305  
C221     C      0.004360000000     0.519750000000     0.688700000000     0.0601991  
C222     C      0.980110000000     0.500320000000     0.635550000000    -0.0444064  
C223     C      0.007200000000     0.501300000000     0.706860000000    -0.0565314  
C224     C      0.978060000000     0.503630000000     0.594960000000     0.0433679  
C225     C      0.026470000000     0.526200000000     0.593480000000    -0.00203051 
C226     C      0.000750000000     0.536220000000     0.746280000000    -0.0572572  
C227     C      0.983130000000     0.474800000000     0.309800000000    -0.034037   
C228     C      0.037770000000     0.499920000000     0.128970000000    -0.031902   
C229     C      0.000630000000     0.456260000000     0.089430000000    -0.0013681  
C230     C      0.043890000000     0.494150000000     0.091650000000    -0.00128299 
C231     C      0.019230000000     0.467710000000     0.211000000000    -0.0540299  
C232     C      0.003800000000     0.502010000000     0.229020000000    -0.0559404  
C233     C      0.014980000000     0.480820000000     0.183780000000     0.060458   
C234     C      0.995400000000     0.463030000000     0.126750000000    -0.0321194  
C235     C      0.008760000000     0.489410000000     0.256220000000     0.0626267  
C236     C      0.029950000000     0.504550000000     0.314220000000    -0.0465837  
C237     C      0.015900000000     0.471730000000     0.246980000000    -0.0580133  
C238     C      0.026650000000     0.492660000000     0.351730000000     0.0474269  
C239     C      0.980580000000     0.482200000000     0.348000000000     0.00359574 
C240     C      0.006620000000     0.497620000000     0.193010000000    -0.0563344  
C241     C      0.900260000000     0.613500000000     0.107200000000    -0.0333236  
C242     C      0.931000000000     0.520430000000     0.039770000000    -0.0321172  
C243     C      0.983090000000     0.553600000000     0.016950000000    -0.00172937 
C244     C      0.942930000000     0.511050000000     0.012250000000    -0.00131375 
C245     C      0.915180000000     0.566710000000     0.036820000000    -0.0544435  
C246     C      0.913640000000     0.565670000000     0.111920000000    -0.0552605  
C247     C      0.927980000000     0.556760000000     0.055740000000     0.0603085  
C248     C      0.968980000000     0.560790000000     0.044070000000    -0.0318908  
C249     C      0.901090000000     0.575870000000     0.092940000000     0.0609937  
C250     C      0.860330000000     0.571990000000     0.108300000000    -0.0462656  
C251     C      0.901800000000     0.576160000000     0.055150000000    -0.0573743  
C252     C      0.847490000000     0.588130000000     0.106160000000     0.0477962  
C253     C      0.888140000000     0.624440000000     0.131610000000     0.00293576 
C254     C      0.926950000000     0.556100000000     0.093550000000    -0.0567025  
C255     C      0.385610000000     0.157160000000     0.989440000000    -0.0327056  
C256     C      0.350650000000     0.160570000000     0.802170000000    -0.0318219  
C257     C      0.396810000000     0.202800000000     0.773980000000    -0.00107509 
C258     C      0.349670000000     0.172430000000     0.766690000000    -0.00158337 
C259     C      0.368080000000     0.184850000000     0.890130000000    -0.054528   
C260     C      0.366640000000     0.139790000000     0.904590000000    -0.0549214  
C261     C      0.369310000000     0.170700000000     0.861650000000     0.0604808  
C262     C      0.395570000000     0.189310000000     0.809120000000    -0.0322395  
C263     C      0.364580000000     0.153540000000     0.932960000000     0.0605786  
C264     C      0.340240000000     0.142840000000     0.988630000000    -0.0452505  
C265     C      0.366060000000     0.176580000000     0.925560000000    -0.0567769  
C266     C      0.336750000000     0.129430000000     0.024670000000     0.0436282  
C267     C      0.382840000000     0.143890000000     0.025300000000    -0.00251732 
C268     C      0.369290000000     0.148370000000     0.869240000000    -0.0568408  
C269     C      0.361720000000     0.195080000000     0.483460000000    -0.0311678  
C270     C      0.406900000000     0.207550000000     0.298250000000    -0.0319642  
C271     C      0.360110000000     0.194150000000     0.259290000000    -0.000972717
C272     C      0.403950000000     0.196900000000     0.260420000000    -0.000572908
C273     C      0.375290000000     0.179130000000     0.376080000000    -0.0549275  
C274     C      0.394750000000     0.226470000000     0.406800000000    -0.0542402  
C275     C      0.383630000000     0.200010000000     0.353800000000     0.0609364  
C276     C      0.366100000000     0.204630000000     0.297530000000    -0.0318493  
C277     C      0.386220000000     0.205520000000     0.429120000000     0.0595953  
C278     C      0.404020000000     0.201450000000     0.485000000000    -0.0430387  
C279     C      0.376560000000     0.181750000000     0.413360000000    -0.0564333  
C280     C      0.407040000000     0.207570000000     0.525570000000     0.0404073  
C281     C      0.362630000000     0.203380000000     0.522100000000    -0.00127041 
C282     C      0.393560000000     0.223830000000     0.369390000000    -0.0573612  
C283     C      0.439880000000     0.148640000000     0.597090000000    -0.0332064  
C284     C      0.452000000000     0.047860000000     0.513410000000    -0.0319614  
C285     C      0.502550000000     0.077500000000     0.483190000000    -0.00174621 
C286     C      0.461570000000     0.036480000000     0.485330000000    -0.00202146 
C287     C      0.444000000000     0.100700000000     0.514080000000    -0.0546861  
C288     C      0.441690000000     0.095310000000     0.588790000000    -0.0549971  
C289     C      0.453190000000     0.086340000000     0.530330000000     0.0604324  
C290     C      0.491680000000     0.087440000000     0.511600000000    -0.0320436  
C291     C      0.432260000000     0.109420000000     0.572460000000     0.0608469  
C292     C      0.395590000000     0.113980000000     0.587610000000    -0.0443642  
C293     C      0.433840000000     0.112370000000     0.534910000000    -0.0570753  
C294     C      0.389030000000     0.135140000000     0.591190000000     0.0383694  
C295     C      0.430580000000     0.159800000000     0.625670000000     0.00169513 
C296     C      0.452290000000     0.084020000000     0.568030000000    -0.0566921  
C297     C      0.091920000000     0.475640000000     0.912990000000    -0.0324114  
C298     C      0.134640000000     0.389110000000     0.856710000000    -0.0319432  
C299     C      0.188020000000     0.424480000000     0.843680000000    -0.0015697  
C300     C      0.149930000000     0.381340000000     0.832860000000    -0.00154479 
C301     C      0.118070000000     0.435120000000     0.848200000000    -0.0550331  
C302     C      0.106840000000     0.428880000000     0.921600000000    -0.0544666  
C303     C      0.128420000000     0.424000000000     0.869930000000     0.0605914  
C304     C      0.170850000000     0.430130000000     0.867020000000    -0.0320712  
C305     C      0.096470000000     0.440020000000     0.899850000000     0.0598004  
C306     C      0.054980000000     0.436030000000     0.900940000000    -0.0443842  
C307     C      0.102280000000     0.443130000000     0.862900000000    -0.0566261  
C308     C      0.037400000000     0.442860000000     0.921730000000     0.0431868  
C309     C      0.077840000000     0.484440000000     0.937220000000    -0.000459576
C310     C      0.122740000000     0.420950000000     0.906890000000    -0.0571249  
C311     C      0.322210000000     0.255480000000     0.677120000000    -0.0327473  
C312     C      0.309190000000     0.348610000000     0.782300000000    -0.0322044  
C313     C      0.253970000000     0.318530000000     0.779810000000    -2.45351e-06
C314     C      0.293800000000     0.361690000000     0.788970000000    -0.00103829 
C315     C      0.313240000000     0.317250000000     0.706350000000    -0.054787   
C316     C      0.331010000000     0.292760000000     0.750640000000    -0.0542817  
C317     C      0.310290000000     0.317440000000     0.743620000000     0.0608645  
C318     C      0.271920000000     0.308390000000     0.774520000000    -0.032308   
C319     C      0.332970000000     0.291660000000     0.713260000000     0.0599878  
C320     C      0.364810000000     0.289720000000     0.676760000000    -0.0447148  
C321     C      0.324530000000     0.304560000000     0.691190000000    -0.0565379  
C322     C      0.375980000000     0.272960000000     0.666790000000     0.0444641  
C323     C      0.329700000000     0.235770000000     0.670220000000     0.00107008 
C324     C      0.319820000000     0.305590000000     0.765830000000    -0.0571613  
C325     C      0.501800000000     0.511740000000     0.642620000000    -0.0312643  
C326     C      0.520400000000     0.498180000000     0.833110000000    -0.0322541  
C327     C      0.486910000000     0.508580000000     0.876480000000    -0.00179895 
C328     C      0.528460000000     0.508100000000     0.871290000000    -0.000985182
C329     C      0.517920000000     0.524180000000     0.756760000000    -0.0549875  
C330     C      0.484080000000     0.477800000000     0.727010000000    -0.054255   
C331     C      0.502080000000     0.504450000000     0.779480000000     0.0605569  
C332     C      0.481370000000     0.499140000000     0.837680000000    -0.031902   
C333     C      0.500110000000     0.497480000000     0.704260000000     0.0594774  
C334     C      0.521980000000     0.488170000000     0.658950000000    -0.0423631  
C335     C      0.517270000000     0.520740000000     0.719610000000    -0.0564925  
C336     C      0.520310000000     0.478190000000     0.620640000000     0.0378362  
C337     C      0.497640000000     0.502740000000     0.603680000000    -0.00222507 
C338     C      0.485210000000     0.481070000000     0.764290000000    -0.0571073  
C339     C      0.551780000000     0.506160000000     0.342100000000    -0.0319214  
C340     C      0.497640000000     0.489270000000     0.160340000000    -0.0324568  
C341     C      0.543290000000     0.521630000000     0.119490000000    -0.00224461 
C342     C      0.495700000000     0.501420000000     0.125430000000    -0.00109455 
C343     C      0.519360000000     0.509970000000     0.242640000000    -0.0543927  
C344     C      0.532860000000     0.473740000000     0.256490000000    -0.0544923  
C345     C      0.523360000000     0.497760000000     0.213820000000     0.0602659  
C346     C      0.543340000000     0.509000000000     0.154740000000    -0.0316587  
C347     C      0.530530000000     0.487110000000     0.285180000000     0.0604495  
C348     C      0.516280000000     0.463440000000     0.341210000000    -0.0453592  
C349     C      0.522440000000     0.504430000000     0.278090000000    -0.0563034  
C350     C      0.527160000000     0.456440000000     0.373580000000     0.0412161  
C351     C      0.563300000000     0.500690000000     0.374910000000    -0.0021686  
C352     C      0.528860000000     0.478610000000     0.221160000000    -0.0564725  
C353     C      0.859560000000     0.225520000000     0.979320000000    -0.0330489  
C354     C      0.867120000000     0.187410000000     0.794890000000    -0.0319284  
C355     C      0.821460000000     0.181660000000     0.760700000000    -0.00131404 
C356     C      0.857540000000     0.172080000000     0.760450000000    -0.00159435 
C357     C      0.841040000000     0.180370000000     0.880490000000    -0.0547081  
C358     C      0.879730000000     0.229460000000     0.892030000000    -0.0549786  
C359     C      0.852940000000     0.195940000000     0.851010000000     0.0605041  
C360     C      0.832950000000     0.196690000000     0.795100000000    -0.0320783  
C361     C      0.868380000000     0.213630000000     0.921470000000     0.0604954  
C362     C      0.887410000000     0.207790000000     0.975060000000    -0.044854   
C363     C      0.848500000000     0.189120000000     0.915490000000    -0.0568133  
C364     C      0.900610000000     0.220500000000     0.010190000000     0.0434398  
C365     C      0.871960000000     0.238470000000     0.014780000000    -0.00185186 
C366     C      0.872010000000     0.220820000000     0.857040000000    -0.0568946  
C367     C      0.848540000000     0.206830000000     0.298930000000    -0.0322029  
C368     C      0.840550000000     0.148830000000     0.473900000000    -0.0319515  
C369     C      0.806730000000     0.160300000000     0.514970000000    -0.000790425
C370     C      0.844400000000     0.151780000000     0.514520000000    -0.000213649
C371     C      0.855220000000     0.192350000000     0.410300000000    -0.0548127  
C372     C      0.822980000000     0.156420000000     0.360990000000    -0.0543675  
C373     C      0.835080000000     0.169830000000     0.422830000000     0.0608848  
C374     C      0.806360000000     0.157570000000     0.474080000000    -0.0318895  
C375     C      0.842920000000     0.179140000000     0.348450000000     0.0597877  
C376     C      0.868950000000     0.182160000000     0.298010000000    -0.0445844  
C377     C      0.859330000000     0.196940000000     0.373520000000    -0.0564979  
C378     C      0.870070000000     0.182000000000     0.256730000000     0.0439151  
C379     C      0.847230000000     0.207780000000     0.258110000000    -0.00122066 
C380     C      0.819170000000     0.151620000000     0.397870000000    -0.057246   
C381     C      0.227240000000     0.404180000000     0.662390000000    -0.0337754  
C382     C      0.183030000000     0.356270000000     0.480370000000    -0.031919   
C383     C      0.189540000000     0.400310000000     0.442420000000    -0.0017133  
C384     C      0.171060000000     0.353700000000     0.443380000000    -0.00200076 
C385     C      0.178370000000     0.379780000000     0.564090000000    -0.0547307  
C386     C      0.223500000000     0.380530000000     0.580210000000    -0.0550468  
C387     C      0.193600000000     0.379550000000     0.536050000000     0.0600113  
C388     C      0.201100000000     0.401470000000     0.479440000000    -0.0323324  
C389     C      0.207940000000     0.380050000000     0.608210000000     0.0607786  
C390     C      0.196250000000     0.359620000000     0.667200000000    -0.0355047  
C391     C      0.185550000000     0.380280000000     0.599960000000    -0.0572795  
C392     C      0.209540000000     0.356900000000     0.700150000000     0.0111642  
C393     C      0.240940000000     0.403740000000     0.696890000000     0.00203317 
C394     C      0.216580000000     0.380510000000     0.544450000000    -0.0566487  
C395     C      0.203900000000     0.343050000000     0.978030000000    -0.0336907  
C396     C      0.229930000000     0.398820000000     0.159680000000    -0.0321031  
C397     C      0.199570000000     0.352900000000     0.200280000000    -0.00184497 
C398     C      0.219610000000     0.400370000000     0.196600000000    -0.00148303 
C399     C      0.201930000000     0.375520000000     0.079060000000    -0.0547559  
C400     C      0.241400000000     0.367900000000     0.057310000000    -0.0550397  
C401     C      0.217890000000     0.374200000000     0.105000000000     0.0600726  
C402     C      0.210750000000     0.353980000000     0.163220000000    -0.0317427  
C403     C      0.224640000000     0.367920000000     0.031550000000     0.060277   
C404     C      0.240470000000     0.385290000000     0.972190000000    -0.035364   
C405     C      0.205430000000     0.372770000000     0.042550000000    -0.0569554  
C406     C      0.248430000000     0.378160000000     0.937250000000     0.0108237  
C407     C      0.209420000000     0.335010000000     0.941650000000     0.00148578 
C408     C      0.238330000000     0.371340000000     0.093680000000    -0.0568887  
C409     C      0.091110000000     0.321830000000     0.269480000000    -0.0319688  
C410     C      0.973380000000     0.298170000000     0.183480000000    -0.0321482  
C411     C      0.962590000000     0.250830000000     0.151520000000    -0.00116516 
C412     C      0.953140000000     0.286200000000     0.154220000000    -0.00168443 
C413     C      0.038580000000     0.315820000000     0.186520000000    -0.0549262  
C414     C      0.033560000000     0.316040000000     0.261140000000    -0.0544176  
C415     C      0.014410000000     0.304240000000     0.201800000000     0.0610155  
C416     C      0.982090000000     0.263790000000     0.181270000000    -0.0320429  
C417     C      0.057760000000     0.327530000000     0.245850000000     0.0600958  
C418     C      0.098310000000     0.363680000000     0.260730000000    -0.0444465  
C419     C      0.060100000000     0.327160000000     0.208210000000    -0.0563892  
C420     C      0.120000000000     0.374610000000     0.288450000000     0.042079   
C421     C      0.110900000000     0.330400000000     0.299100000000    -0.00256699 
C422     C      0.012010000000     0.304260000000     0.239440000000    -0.0570216  
C423     C      0.431510000000     0.472850000000     0.429880000000    -0.0336991  
C424     C      0.305980000000     0.391010000000     0.352130000000    -0.0321544  
C425     C      0.286170000000     0.425080000000     0.360230000000    -0.00160108 
C426     C      0.277290000000     0.380150000000     0.354450000000    -0.00123452 
C427     C      0.353060000000     0.420170000000     0.413560000000    -0.0546018  
C428     C      0.389060000000     0.443320000000     0.359290000000    -0.0548915  
C429     C      0.345200000000     0.422480000000     0.379140000000     0.0604648  
C430     C      0.314270000000     0.433370000000     0.357920000000    -0.0318606  
C431     C      0.397000000000     0.441920000000     0.394110000000     0.0602864  
C432     C      0.431780000000     0.435260000000     0.409430000000    -0.0437615  
C433     C      0.378670000000     0.429550000000     0.421010000000    -0.0567482  
C434     C      0.460690000000     0.448470000000     0.413760000000     0.0385294  
C435     C      0.460170000000     0.486450000000     0.435100000000    -7.07798e-06
C436     C      0.363350000000     0.433460000000     0.351650000000    -0.0568808  
C437     C      0.564060000000     0.045070000000     0.632090000000    -0.0320222  
C438     C      0.557680000000     0.008140000000     0.820430000000    -0.0317492  
C439     C      0.573860000000     0.053270000000     0.862620000000    -0.00160156 
C440     C      0.568760000000     0.010440000000     0.858090000000    -0.00142236 
C441     C      0.579900000000     0.033250000000     0.740660000000    -0.0549782  
C442     C      0.532910000000     0.025550000000     0.717690000000    -0.0541103  
C443     C      0.562210000000     0.031440000000     0.766190000000     0.0607395  
C444     C      0.563040000000     0.049940000000     0.824600000000    -0.0322555  
C445     C      0.550820000000     0.027920000000     0.692110000000     0.0596771  
C446     C      0.537040000000     0.000860000000     0.640430000000    -0.0436882  
C447     C      0.574220000000     0.031130000000     0.704010000000    -0.0563884  
C448     C      0.525340000000     0.997180000000     0.602690000000     0.0429013  
C449     C      0.553840000000     0.044690000000     0.594560000000    -0.00203752 
C450     C      0.538320000000     0.026920000000     0.754410000000    -0.0569931  
C451     C      0.486800000000     0.988370000000     0.319350000000    -0.0319148  
C452     C      0.512510000000     0.985230000000     0.130230000000    -0.0327463  
C453     C      0.489380000000     0.006440000000     0.084300000000    -0.00133151 
C454     C      0.504680000000     0.975650000000     0.091780000000    -0.000964489
C455     C      0.486860000000     0.976860000000     0.205820000000    -0.0543083  
C456     C      0.514970000000     0.024320000000     0.235870000000    -0.0542208  
C457     C      0.498390000000     0.997680000000     0.183020000000     0.059765   
C458     C      0.497110000000     0.014530000000     0.123280000000    -0.0321432  
C459     C      0.503430000000     0.003500000000     0.258670000000     0.059831   
C460     C      0.531650000000     0.010610000000     0.308420000000    -0.0442853  
C461     C      0.489790000000     0.979560000000     0.243070000000    -0.0561937  
C462     C      0.537920000000     0.020960000000     0.346900000000     0.0436059  
C463     C      0.489880000000     0.997070000000     0.358330000000    -0.00277435 
C464     C      0.513050000000     0.021520000000     0.198540000000    -0.0556963  
C465     C      0.639150000000     0.048200000000     0.047740000000    -0.0325371  
C466     C      0.758470000000     0.156990000000     0.103190000000    -0.0319286  
C467     C      0.791840000000     0.136780000000     0.117040000000    -0.00179668 
C468     C      0.781560000000     0.171400000000     0.127310000000    -0.00145623 
C469     C      0.704000000000     0.100210000000     0.111000000000    -0.0550828  
C470     C      0.697200000000     0.103070000000     0.037200000000    -0.0543332  
C471     C      0.724880000000     0.115400000000     0.089390000000     0.0609908  
C472     C      0.768150000000     0.123840000000     0.093470000000    -0.0319397  
C473     C      0.676250000000     0.088130000000     0.058900000000     0.0599515  
C474     C      0.635100000000     0.084510000000     0.056490000000    -0.0445385  
C475     C      0.679880000000     0.086650000000     0.096020000000    -0.0565012  
C476     C      0.610230000000     0.073610000000     0.035070000000     0.0439679  
C477     C      0.616010000000     0.035300000000     0.023460000000    -4.47563e-05
C478     C      0.721370000000     0.116620000000     0.052210000000    -0.0572081  
C479     C      0.231850000000     0.863540000000     0.460090000000    -0.0317427  
C480     C      0.213020000000     0.843400000000     0.648440000000    -0.0324075  
C481     C      0.233410000000     0.886440000000     0.695980000000    -0.00159002 
C482     C      0.220700000000     0.841190000000     0.686680000000    -0.000505116
C483     C      0.238710000000     0.860980000000     0.574330000000    -0.0546334  
C484     C      0.208810000000     0.878550000000     0.543710000000    -0.0540085  
C485     C      0.226990000000     0.870430000000     0.596750000000     0.0604766  
C486     C      0.226260000000     0.887210000000     0.656760000000    -0.0323402  
C487     C      0.219660000000     0.868130000000     0.521410000000     0.0597674  
C488     C      0.187980000000     0.844100000000     0.477110000000    -0.0446276  
C489     C      0.234610000000     0.859160000000     0.537320000000    -0.0558153  
C490     C      0.179300000000     0.845100000000     0.438760000000     0.0441807  
C491     C      0.226090000000     0.865590000000     0.420790000000    -0.00232529 
C492     C      0.211800000000     0.879120000000     0.580950000000    -0.0561657  
C493     C      0.176900000000     0.811200000000     0.150970000000    -0.0317217  
C494     C      0.159290000000     0.840000000000     0.965730000000    -0.032089   
C495     C      0.174060000000     0.808980000000     0.924690000000    -0.000554415
C496     C      0.170670000000     0.849050000000     0.928440000000    -0.000306076
C497     C      0.186760000000     0.838670000000     0.042870000000    -0.0548698  
C498     C      0.140590000000     0.802960000000     0.072470000000    -0.0546559  
C499     C      0.166710000000     0.823270000000     0.020150000000     0.0610853  
C500     C      0.162940000000     0.803050000000     0.962510000000    -0.0320005  
C501     C      0.160880000000     0.817970000000     0.095210000000     0.0601158  
C502     C      0.155940000000     0.835740000000     0.149910000000    -0.0444917  
C503     C      0.183890000000     0.836320000000     0.080050000000    -0.0565369  
C504     C      0.148990000000     0.830820000000     0.189960000000     0.0429659  
C505     C      0.170190000000     0.804290000000     0.190270000000    -0.0025787  
C506     C      0.143310000000     0.805720000000     0.035180000000    -0.0572486  
C507     C      0.432880000000     0.936880000000     0.901450000000    -0.0325667  
C508     C      0.304280000000     0.912160000000     0.864220000000    -0.0319733  
C509     C      0.277910000000     0.860210000000     0.840510000000    -0.000912913
C510     C      0.280460000000     0.902910000000     0.841430000000    -0.00115434 
C511     C      0.362960000000     0.918420000000     0.845300000000    -0.0549669  
C512     C      0.372050000000     0.925520000000     0.919180000000    -0.0543455  
C513     C      0.342550000000     0.909790000000     0.869080000000     0.0610202  
C514     C      0.301880000000     0.871970000000     0.863540000000    -0.0320811  
C515     C      0.392500000000     0.934740000000     0.895310000000     0.0600525  
C516     C      0.430940000000     0.974560000000     0.896020000000    -0.0447495  
C517     C      0.387750000000     0.930700000000     0.858170000000    -0.0566399  
C518     C      0.456340000000     0.990420000000     0.915450000000     0.0443028  
C519     C      0.456930000000     0.948900000000     0.924040000000     0.000481695
C520     C      0.347210000000     0.913010000000     0.906280000000    -0.057238   
C521     C      0.865930000000     0.654980000000     0.822810000000    -0.0335291  
C522     C      0.812610000000     0.606110000000     0.997790000000    -0.0288177  
C523     C      0.841850000000     0.655910000000     0.028860000000     0.00045703 
C524     C      0.814780000000     0.609050000000     0.038750000000    -0.00938316 
C525     C      0.858950000000     0.625460000000     0.928360000000    -0.0546432  
C526     C      0.820570000000     0.620320000000     0.881960000000    -0.0549183  
C527     C      0.836550000000     0.622950000000     0.942620000000     0.0605704  
C528     C      0.837920000000     0.650840000000     0.988640000000    -0.0321937  
C529     C      0.843350000000     0.623800000000     0.867720000000     0.060925   
C530     C      0.853900000000     0.611250000000     0.810710000000    -0.0455269  
C531     C      0.862480000000     0.626090000000     0.891230000000    -0.0571732  
C532     C      0.866620000000     0.621190000000     0.773460000000     0.0461367  
C533     C      0.863180000000     0.660400000000     0.783820000000     0.00445723 
C534     C      0.817190000000     0.620070000000     0.919080000000    -0.0568826  
C535     C      0.866380000000     0.658880000000     0.490040000000    -0.0330389  
C536     C      0.805260000000     0.622990000000     0.317160000000    -0.0320722  
C537     C      0.845600000000     0.662410000000     0.274330000000     0.000296988
C538     C      0.800140000000     0.625400000000     0.277470000000    -0.00171407 
C539     C      0.834420000000     0.672100000000     0.386450000000    -0.0550023  
C540     C      0.828010000000     0.632040000000     0.428570000000    -0.0532732  
C541     C      0.826750000000     0.649020000000     0.370110000000     0.06119    
C542     C      0.848410000000     0.656700000000     0.313300000000    -0.0323459  
C543     C      0.836350000000     0.655350000000     0.444890000000     0.0590293  
C544     C      0.842170000000     0.679010000000     0.500930000000    -0.0452837  
C545     C      0.839700000000     0.675500000000     0.423110000000    -0.0552077  
C546     C      0.845320000000     0.678370000000     0.542060000000     0.0449487  
C547     C      0.866820000000     0.651850000000     0.529090000000     0.0020339  
C548     C      0.823900000000     0.628980000000     0.391520000000    -0.0570462  
C549     C      0.628760000000     0.494630000000     0.554390000000    -0.0342718  
C550     C      0.744460000000     0.592150000000     0.641490000000    -0.0320119  
C551     C      0.779620000000     0.573190000000     0.643120000000    -0.00136194 
C552     C      0.767160000000     0.603730000000     0.666930000000    -0.00177207 
C553     C      0.691910000000     0.533140000000     0.632560000000    -0.0551465  
C554     C      0.686180000000     0.549220000000     0.564760000000    -0.0541416  
C555     C      0.712820000000     0.552970000000     0.615790000000     0.0608177  
C556     C      0.756530000000     0.562700000000     0.618300000000    -0.0322413  
C557     C      0.665060000000     0.530050000000     0.582180000000     0.0601799  
C558     C      0.623670000000     0.525370000000     0.589880000000    -0.0432287  
C559     C      0.668230000000     0.521650000000     0.615930000000    -0.0566822  
C560     C      0.601040000000     0.522210000000     0.567980000000     0.0392915  
C561     C      0.599790000000     0.482040000000     0.548970000000     0.000931427
C562     C      0.709940000000     0.560550000000     0.581250000000    -0.0569849  
C563     C      0.089560000000     0.778450000000     0.740550000000    -0.0322624  
C564     C      0.960050000000     0.742680000000     0.687850000000    -0.0321093  
C565     C      0.949490000000     0.696420000000     0.652470000000    -0.00126961 
C566     C      0.937200000000     0.729350000000     0.662770000000    -0.00190325 
C567     C      0.025690000000     0.765990000000     0.675590000000    -0.0551022  
C568     C      0.028610000000     0.764820000000     0.750470000000    -0.0543271  
C569     C      0.003560000000     0.752140000000     0.695600000000     0.0609683  
C570     C      0.971570000000     0.710630000000     0.678330000000    -0.0320827  
C571     C      0.050790000000     0.778550000000     0.730440000000     0.0598045  
C572     C      0.089670000000     0.817400000000     0.741020000000    -0.0445274  
C573     C      0.049130000000     0.778960000000     0.692680000000    -0.0564492  
C574     C      0.113910000000     0.830420000000     0.764070000000     0.0429217  
C575     C      0.111780000000     0.787680000000     0.766330000000    -0.000922347
C576     C      0.005170000000     0.751550000000     0.733300000000    -0.0571744  
H1       H      0.741410000000     0.005420000000     0.654000000000     0.0394974  
H2       H      0.744930000000     0.946820000000     0.751020000000     0.0330502  
H3       H      0.675260000000     0.945980000000     0.748560000000     0.0383803  
H4       H      0.814540000000     0.088270000000     0.698360000000     0.0352266  
H5       H      0.714500000000     0.903660000000     0.745110000000     0.0341802  
H6       H      0.731620000000     0.050390000000     0.689870000000     0.0335301  
H7       H      0.798000000000     0.044840000000     0.689470000000     0.0330554  
H8       H      0.754770000000     0.090160000000     0.652380000000     0.0356642  
H9       H      0.718080000000     0.962130000000     0.675930000000     0.0432597  
H10      H      0.725530000000     0.908850000000     0.790510000000     0.0369474  
H11      H      0.755540000000     0.032050000000     0.763210000000     0.0436034  
H12      H      0.731070000000     0.950000000000     0.791970000000     0.0357959  
H13      H      0.819870000000     0.084650000000     0.652080000000     0.0357261  
H14      H      0.660590000000     0.902770000000     0.748350000000     0.0282429  
H15      H      0.744930000000     0.047420000000     0.648270000000     0.0352933  
H16      H      0.782510000000     0.044350000000     0.648030000000     0.0350026  
H17      H      0.732210000000     0.989010000000     0.785150000000     0.0393943  
H18      H      0.692470000000     0.951520000000     0.789880000000     0.0410666  
H19      H      0.763700000000     0.092550000000     0.698590000000     0.0357309  
H20      H      0.625250000000     0.893280000000     0.795360000000     0.029334   
H21      H      0.917880000000     0.324650000000     0.616160000000     0.0394939  
H22      H      0.984640000000     0.384370000000     0.522080000000     0.0334983  
H23      H      0.912600000000     0.377920000000     0.512670000000     0.0382128  
H24      H      0.900260000000     0.237220000000     0.577250000000     0.0359687  
H25      H      0.996060000000     0.426520000000     0.526110000000     0.0370342  
H26      H      0.864170000000     0.283500000000     0.579720000000     0.0333658  
H27      H      0.931520000000     0.279820000000     0.585190000000     0.033098   
H28      H      0.842400000000     0.244550000000     0.618890000000     0.0359773  
H29      H      0.939210000000     0.367440000000     0.592250000000     0.0437886  
H30      H      0.001900000000     0.422700000000     0.480280000000     0.0346343  
H31      H      0.910230000000     0.295790000000     0.508720000000     0.0436055  
H32      H      0.969640000000     0.380000000000     0.478980000000     0.0352718  
H33      H      0.908270000000     0.240610000000     0.623910000000     0.0350729  
H34      H      0.935320000000     0.420890000000     0.511420000000     0.029816   
H35      H      0.878990000000     0.285240000000     0.622310000000     0.0348994  
H36      H      0.917080000000     0.283200000000     0.625370000000     0.0351668  
H37      H      0.932130000000     0.338420000000     0.484910000000     0.0393106  
H38      H      0.928130000000     0.373920000000     0.474530000000     0.040205   
H39      H      0.848600000000     0.240090000000     0.573360000000     0.0352668  
H40      H      0.915440000000     0.427190000000     0.453560000000     0.0297868  
H41      H      0.088410000000     0.676900000000     0.331810000000     0.0395414  
H42      H      0.093400000000     0.619770000000     0.429720000000     0.0333271  
H43      H      0.023010000000     0.617410000000     0.427060000000     0.0380164  
H44      H      0.163600000000     0.758680000000     0.372790000000     0.0362723  
H45      H      0.066000000000     0.576770000000     0.422590000000     0.0356306  
H46      H      0.080820000000     0.723440000000     0.370050000000     0.0333957  
H47      H      0.145410000000     0.714940000000     0.364360000000     0.0332191  
H48      H      0.103860000000     0.762860000000     0.332210000000     0.0359461  
H49      H      0.064950000000     0.633720000000     0.354030000000     0.0435607  
H50      H      0.073020000000     0.580750000000     0.469460000000     0.0353018  
H51      H      0.104020000000     0.703840000000     0.440840000000     0.0437218  
H52      H      0.078500000000     0.621510000000     0.470460000000     0.0350236  
H53      H      0.167300000000     0.754290000000     0.326170000000     0.0360402  
H54      H      0.007360000000     0.574630000000     0.425860000000     0.028925   
H55      H      0.092310000000     0.719570000000     0.327350000000     0.0354382  
H56      H      0.128920000000     0.714760000000     0.324100000000     0.0348893  
H57      H      0.080240000000     0.660850000000     0.463070000000     0.0392679  
H58      H      0.040110000000     0.622430000000     0.468300000000     0.0403793  
H59      H      0.114650000000     0.765090000000     0.377490000000     0.0367928  
H60      H      0.974560000000     0.563340000000     0.477110000000     0.0301466  
H61      H      0.585320000000     0.679280000000     0.868610000000     0.0395559  
H62      H      0.595990000000     0.630000000000     0.970790000000     0.0334992  
H63      H      0.522050000000     0.619480000000     0.968390000000     0.0378308  
H64      H      0.648840000000     0.768500000000     0.908050000000     0.034989   
H65      H      0.573610000000     0.586920000000     0.964770000000     0.0381255  
H66      H      0.567790000000     0.719940000000     0.895410000000     0.0333476  
H67      H      0.639830000000     0.726160000000     0.906180000000     0.0331482  
H68      H      0.586720000000     0.757300000000     0.853880000000     0.0368519  
H69      H      0.565870000000     0.637050000000     0.894160000000     0.0439169  
H70      H      0.578050000000     0.590840000000     0.012160000000     0.0329513  
H71      H      0.595410000000     0.710050000000     0.975200000000     0.043279   
H72      H      0.580150000000     0.630150000000     0.011440000000     0.0351783  
H73      H      0.658320000000     0.763610000000     0.864680000000     0.0361926  
H74      H      0.507810000000     0.577960000000     0.974200000000     0.0286213  
H75      H      0.583750000000     0.717010000000     0.856570000000     0.0353745  
H76      H      0.624900000000     0.720550000000     0.862750000000     0.0356381  
H77      H      0.576360000000     0.667940000000     0.000780000000     0.0393195  
H78      H      0.540230000000     0.628130000000     0.008900000000     0.0394913  
H79      H      0.595980000000     0.763920000000     0.900030000000     0.0358837  
H80      H      0.482770000000     0.565780000000     0.033880000000     0.0314622  
H81      H      0.288190000000     0.016410000000     0.173410000000     0.0396125  
H82      H      0.283820000000     0.946820000000     0.256480000000     0.0333896  
H83      H      0.222900000000     0.960190000000     0.270880000000     0.0381445  
H84      H      0.362460000000     0.098260000000     0.221520000000     0.0351404  
H85      H      0.248130000000     0.906750000000     0.247230000000     0.0366868  
H86      H      0.281020000000     0.058920000000     0.217920000000     0.0333037  
H87      H      0.348220000000     0.055030000000     0.209200000000     0.0334979  
H88      H      0.301550000000     0.099500000000     0.184540000000     0.0375208  
H89      H      0.261410000000     0.972590000000     0.191440000000     0.0435969  
H90      H      0.259560000000     0.906510000000     0.291340000000     0.0356974  
H91      H      0.308780000000     0.036990000000     0.284090000000     0.0433965  
H92      H      0.273960000000     0.949880000000     0.300880000000     0.0356517  
H93      H      0.368980000000     0.095890000000     0.175160000000     0.0362372  
H94      H      0.199170000000     0.916920000000     0.266860000000     0.0286664  
H95      H      0.292920000000     0.057430000000     0.174190000000     0.0358563  
H96      H      0.331500000000     0.054950000000     0.169220000000     0.0361779  
H97      H      0.282750000000     0.993230000000     0.302020000000     0.0393922  
H98      H      0.241360000000     0.960240000000     0.308420000000     0.0403594  
H99      H      0.314730000000     0.100810000000     0.228050000000     0.0342297  
H100     H      0.171930000000     0.911280000000     0.323470000000     0.029225   
H101     H      0.442000000000     0.322910000000     0.110410000000     0.0395539  
H102     H      0.503710000000     0.391220000000     0.018680000000     0.0332429  
H103     H      0.429340000000     0.379510000000     0.021680000000     0.0378679  
H104     H      0.432750000000     0.241650000000     0.062490000000     0.0340042  
H105     H      0.512970000000     0.432000000000     0.030480000000     0.0364847  
H106     H      0.389390000000     0.279320000000     0.065960000000     0.0333362  
H107     H      0.461440000000     0.285160000000     0.073910000000     0.0330558  
H108     H      0.370000000000     0.238930000000     0.099850000000     0.0375356  
H109     H      0.459250000000     0.366760000000     0.092830000000     0.0434307  
H110     H      0.516530000000     0.431760000000     0.982990000000     0.0344738  
H111     H      0.435600000000     0.301960000000     0.998840000000     0.043077   
H112     H      0.486680000000     0.388640000000     0.977970000000     0.034748   
H113     H      0.442060000000     0.244670000000     0.108740000000     0.0363696  
H114     H      0.449390000000     0.422280000000     0.027160000000     0.02866    
H115     H      0.403310000000     0.281510000000     0.109510000000     0.0362384  
H116     H      0.444910000000     0.285050000000     0.114090000000     0.0358578  
H117     H      0.452860000000     0.345710000000     0.981240000000     0.0391752  
H118     H      0.444210000000     0.379760000000     0.980060000000     0.0401861  
H119     H      0.381770000000     0.237720000000     0.056220000000     0.034275   
H120     H      0.426540000000     0.431130000000     0.975330000000     0.0301411  
H121     H      0.662910000000     0.773830000000     0.537310000000     0.0393336  
H122     H      0.693820000000     0.816020000000     0.657720000000     0.0330354  
H123     H      0.614150000000     0.782710000000     0.650700000000     0.0392673  
H124     H      0.687150000000     0.846330000000     0.446140000000     0.0360448  
H125     H      0.675100000000     0.790550000000     0.711260000000     0.0339871  
H126     H      0.622580000000     0.780640000000     0.491780000000     0.033598   
H127     H      0.700160000000     0.835050000000     0.500170000000     0.0330276  
H128     H      0.628650000000     0.777130000000     0.424850000000     0.0371541  
H129     H      0.659400000000     0.768660000000     0.602840000000     0.0426821  
H130     H      0.692740000000     0.823100000000     0.722840000000     0.0368819  
H131     H      0.656740000000     0.840090000000     0.546640000000     0.0434622  
H132     H      0.679600000000     0.834910000000     0.667360000000     0.0377451  
H133     H      0.704990000000     0.831790000000     0.433080000000     0.0353754  
H134     H      0.625200000000     0.769900000000     0.706400000000     0.024524   
H135     H      0.646590000000     0.773050000000     0.479870000000     0.0349928  
H136     H      0.690660000000     0.804050000000     0.484470000000     0.0358331  
H137     H      0.654580000000     0.835680000000     0.612180000000     0.040256   
H138     H      0.632340000000     0.815180000000     0.663360000000     0.0434437  
H139     H      0.629390000000     0.805100000000     0.439170000000     0.0360294  
H140     H      0.589590000000     0.769250000000     0.748660000000     0.0314393  
H141     H      0.665480000000     0.875930000000     0.116590000000     0.0395069  
H142     H      0.704180000000     0.878410000000     0.985640000000     0.0332622  
H143     H      0.624590000000     0.843670000000     0.996550000000     0.0386929  
H144     H      0.703630000000     0.836370000000     0.192750000000     0.0337037  
H145     H      0.687280000000     0.893760000000     0.938970000000     0.0329188  
H146     H      0.631290000000     0.810600000000     0.141260000000     0.0331978  
H147     H      0.708560000000     0.866410000000     0.147920000000     0.0330443  
H148     H      0.629240000000     0.806520000000     0.208440000000     0.0365344  
H149     H      0.663570000000     0.886600000000     0.053550000000     0.0427453  
H150     H      0.700680000000     0.876580000000     0.919300000000     0.037424   
H151     H      0.671570000000     0.812500000000     0.082570000000     0.0430576  
H152     H      0.685250000000     0.846760000000     0.969650000000     0.0383009  
H153     H      0.706290000000     0.863070000000     0.215590000000     0.0370377  
H154     H      0.637150000000     0.871290000000     0.944690000000     0.0259762  
H155     H      0.640330000000     0.839470000000     0.164390000000     0.0366264  
H156     H      0.684740000000     0.871630000000     0.168180000000     0.0354769  
H157     H      0.668280000000     0.822310000000     0.019780000000     0.0398445  
H158     H      0.637670000000     0.825770000000     0.977370000000     0.0430172  
H159     H      0.648930000000     0.796350000000     0.187160000000     0.0348217  
H160     H      0.596360000000     0.842260000000     0.905800000000     0.0303459  
H161     H      0.715020000000     0.745250000000     0.203040000000     0.0397586  
H162     H      0.789380000000     0.730470000000     0.182470000000     0.0329694  
H163     H      0.720040000000     0.662480000000     0.190240000000     0.039075   
H164     H      0.729140000000     0.781890000000     0.329880000000     0.0337945  
H165     H      0.785500000000     0.703980000000     0.131490000000     0.033395   
H166     H      0.677600000000     0.717070000000     0.273870000000     0.0335008  
H167     H      0.751500000000     0.780120000000     0.277090000000     0.0330531  
H168     H      0.659390000000     0.743060000000     0.295850000000     0.0376502  
H169     H      0.731000000000     0.723820000000     0.164750000000     0.0429194  
H170     H      0.811140000000     0.708820000000     0.160150000000     0.0385326  
H171     H      0.737600000000     0.720690000000     0.297290000000     0.0433047  
H172     H      0.787030000000     0.707210000000     0.214020000000     0.0378205  
H173     H      0.734330000000     0.806680000000     0.299700000000     0.0373309  
H174     H      0.742030000000     0.660070000000     0.137450000000     0.0252983  
H175     H      0.684890000000     0.743370000000     0.245230000000     0.0367653  
H176     H      0.728400000000     0.780500000000     0.247200000000     0.0369477  
H177     H      0.754180000000     0.699860000000     0.259070000000     0.0401005  
H178     H      0.745760000000     0.667230000000     0.219280000000     0.0424969  
H179     H      0.680110000000     0.740380000000     0.327500000000     0.0336792  
H180     H      0.726060000000     0.611950000000     0.143820000000     0.0299915  
H181     H      0.584590000000     0.944880000000     0.369700000000     0.0401968  
H182     H      0.660200000000     0.924990000000     0.355660000000     0.0331023  
H183     H      0.586190000000     0.863970000000     0.369240000000     0.0384734  
H184     H      0.601160000000     0.992480000000     0.486800000000     0.0342978  
H185     H      0.653260000000     0.895560000000     0.308110000000     0.0336368  
H186     H      0.552810000000     0.919320000000     0.449390000000     0.0334923  
H187     H      0.620740000000     0.987890000000     0.432820000000     0.0333825  
H188     H      0.530660000000     0.942090000000     0.468760000000     0.0382227  
H189     H      0.599380000000     0.920760000000     0.335110000000     0.0430916  
H190     H      0.676080000000     0.896470000000     0.339190000000     0.0382431  
H191     H      0.613530000000     0.930270000000     0.466820000000     0.0433744  
H192     H      0.654380000000     0.902110000000     0.389960000000     0.0368136  
H193     H      0.599390000000     0.011600000000     0.451860000000     0.038007   
H194     H      0.602670000000     0.851870000000     0.319590000000     0.0264456  
H195     H      0.553420000000     0.940580000000     0.415650000000     0.0377554  
H196     H      0.593390000000     0.980940000000     0.405900000000     0.0377972  
H197     H      0.628150000000     0.906120000000     0.432470000000     0.0396337  
H198     H      0.611020000000     0.867510000000     0.399080000000     0.042054   
H199     H      0.556290000000     0.947100000000     0.497750000000     0.0344125  
H200     H      0.580070000000     0.805220000000     0.340980000000     0.0282875  
H201     H      0.997610000000     0.549470000000     0.761110000000     0.0393604  
H202     H      0.043580000000     0.535620000000     0.645870000000     0.0333255  
H203     H      0.963690000000     0.500070000000     0.649060000000     0.0381025  
H204     H      0.040970000000     0.532400000000     0.861020000000     0.0364212  
H205     H      0.031360000000     0.545970000000     0.589920000000     0.0336813  
H206     H      0.966500000000     0.487340000000     0.801850000000     0.0331204  
H207     H      0.039280000000     0.551300000000     0.807720000000     0.0332525  
H208     H      0.962670000000     0.490750000000     0.870350000000     0.0334993  
H209     H      0.998050000000     0.550900000000     0.695160000000     0.0429093  
H210     H      0.042070000000     0.524310000000     0.581260000000     0.0379383  
H211     H      0.010190000000     0.486800000000     0.757820000000     0.0440059  
H212     H      0.024950000000     0.502590000000     0.636950000000     0.0365847  
H213     H      0.030460000000     0.553050000000     0.876140000000     0.0346343  
H214     H      0.974000000000     0.519110000000     0.590930000000     0.0281356  
H215     H      0.971040000000     0.516650000000     0.818320000000     0.0350238  
H216     H      0.011460000000     0.552460000000     0.820650000000     0.0334432  
H217     H      0.009010000000     0.487160000000     0.692250000000     0.0396028  
H218     H      0.978980000000     0.482030000000     0.640910000000     0.0423176  
H219     H      0.981590000000     0.478200000000     0.854320000000     0.0387339  
H220     H      0.935270000000     0.480880000000     0.560390000000     0.0295607  
H221     H      0.002590000000     0.507540000000     0.172470000000     0.0395295  
H222     H      0.966300000000     0.471850000000     0.294170000000     0.03378    
H223     H      0.037300000000     0.524830000000     0.318220000000     0.0424508  
H224     H      0.007610000000     0.442840000000     0.092600000000     0.03377    
H225     H      0.977230000000     0.498310000000     0.347100000000     0.0374316  
H226     H      0.055590000000     0.509380000000     0.144870000000     0.0334342  
H227     H      0.982130000000     0.445480000000     0.141030000000     0.0331243  
H228     H      0.057070000000     0.511920000000     0.077890000000     0.0373272  
H229     H      0.997850000000     0.515330000000     0.235810000000     0.0430584  
H230     H      0.963750000000     0.466450000000     0.360980000000     0.0338119  
H231     H      0.025270000000     0.454450000000     0.204250000000     0.0433171  
H232     H      0.983210000000     0.456860000000     0.310030000000     0.0416153  
H233     H      0.982600000000     0.446840000000     0.074100000000     0.0372694  
H234     H      0.043770000000     0.505420000000     0.367550000000     0.0275481  
H235     H      0.030320000000     0.513000000000     0.126030000000     0.0376108  
H236     H      0.986120000000     0.474540000000     0.123870000000     0.0374481  
H237     H      0.019350000000     0.461460000000     0.267620000000     0.0445753  
H238     H      0.045140000000     0.503290000000     0.299420000000     0.038669   
H239     H      0.053800000000     0.483280000000     0.094860000000     0.032884   
H240     H      0.029140000000     0.456490000000     0.382950000000     0.0375549  
H241     H      0.936540000000     0.548360000000     0.108780000000     0.0392959  
H242     H      0.920720000000     0.622560000000     0.114050000000     0.0338946  
H243     H      0.852580000000     0.559750000000     0.132270000000     0.0426391  
H244     H      0.983420000000     0.562250000000     0.990610000000     0.0345023  
H245     H      0.894060000000     0.624410000000     0.159850000000     0.0339911  
H246     H      0.910220000000     0.510630000000     0.034970000000     0.0330699  
H247     H      0.976720000000     0.581320000000     0.042420000000     0.0332684  
H248     H      0.936430000000     0.491110000000     0.018160000000     0.0365244  
H249     H      0.913230000000     0.565300000000     0.140990000000     0.0432086  
H250     H      0.895490000000     0.644270000000     0.123960000000     0.0364338  
H251     H      0.915700000000     0.567210000000     0.007740000000     0.0432174  
H252     H      0.898860000000     0.618100000000     0.078730000000     0.0403189  
H253     H      0.003020000000     0.561690000000     0.026060000000     0.0367599  
H254     H      0.827330000000     0.576020000000     0.113860000000     0.0279991  
H255     H      0.934300000000     0.515630000000     0.067340000000     0.0357022  
H256     H      0.972530000000     0.556290000000     0.071690000000     0.035532   
H257     H      0.892140000000     0.583830000000     0.039950000000     0.0413318  
H258     H      0.854370000000     0.559080000000     0.084870000000     0.0364838  
H259     H      0.935790000000     0.511880000000     0.985080000000     0.0346464  
H260     H      0.848230000000     0.581900000000     0.036250000000     0.0321468  
H261     H      0.370940000000     0.137400000000     0.847900000000     0.0395177  
H262     H      0.401270000000     0.157200000000     0.974070000000     0.0329577  
H263     H      0.322700000000     0.132400000000     0.972330000000     0.0393513  
H264     H      0.396680000000     0.220290000000     0.780430000000     0.0354909  
H265     H      0.379550000000     0.124820000000     0.019720000000     0.0331017  
H266     H      0.331840000000     0.152670000000     0.815420000000     0.0333804  
H267     H      0.410400000000     0.202920000000     0.827580000000     0.0331694  
H268     H      0.336230000000     0.157370000000     0.748490000000     0.0375164  
H269     H      0.366160000000     0.122340000000     0.909960000000     0.0426225  
H270     H      0.401000000000     0.154240000000     0.040140000000     0.0377778  
H271     H      0.368580000000     0.202310000000     0.884760000000     0.0432648  
H272     H      0.390700000000     0.176880000000     0.994510000000     0.0382129  
H273     H      0.415050000000     0.208100000000     0.760390000000     0.0360214  
H274     H      0.332540000000     0.110190000000     0.018040000000     0.0245068  
H275     H      0.354290000000     0.144970000000     0.796390000000     0.0362336  
H276     H      0.399730000000     0.174000000000     0.803700000000     0.0366486  
H277     H      0.365420000000     0.188040000000     0.947000000000     0.0402727  
H278     H      0.343400000000     0.161910000000     0.993870000000     0.0436555  
H279     H      0.341870000000     0.185010000000     0.771840000000     0.0336211  
H280     H      0.300400000000     0.106340000000     0.070740000000     0.0320253  
H281     H      0.400290000000     0.240260000000     0.352680000000     0.0394606  
H282     H      0.348310000000     0.198990000000     0.468350000000     0.0333004  
H283     H      0.423080000000     0.211590000000     0.472320000000     0.0376865  
H284     H      0.344390000000     0.174460000000     0.260560000000     0.0358777  
H285     H      0.365310000000     0.222540000000     0.522030000000     0.033478   
H286     H      0.419810000000     0.203100000000     0.313660000000     0.0332367  
H287     H      0.347950000000     0.197760000000     0.312300000000     0.033182   
H288     H      0.421630000000     0.208740000000     0.245070000000     0.0346443  
H289     H      0.402240000000     0.244860000000     0.418470000000     0.0432461  
H290     H      0.343950000000     0.191050000000     0.534820000000     0.0378683  
H291     H      0.367740000000     0.160730000000     0.364410000000     0.0437608  
H292     H      0.354210000000     0.174550000000     0.482930000000     0.0366813  
H293     H      0.352970000000     0.204630000000     0.243480000000     0.0348852  
H294     H      0.421830000000     0.227480000000     0.528890000000     0.0299096  
H295     H      0.415850000000     0.228260000000     0.296890000000     0.0346512  
H296     H      0.375650000000     0.225390000000     0.296550000000     0.0342751  
H297     H      0.369830000000     0.165220000000     0.429830000000     0.0391706  
H298     H      0.396700000000     0.181130000000     0.480890000000     0.0405416  
H299     H      0.401960000000     0.178050000000     0.262460000000     0.0368823  
H300     H      0.432080000000     0.198920000000     0.577600000000     0.0381768  
H301     H      0.459810000000     0.073580000000     0.581410000000     0.039922   
H302     H      0.459040000000     0.152340000000     0.605080000000     0.0332021  
H303     H      0.384050000000     0.099420000000     0.607750000000     0.0417881  
H304     H      0.499610000000     0.083390000000     0.456240000000     0.0340847  
H305     H      0.431830000000     0.152610000000     0.652520000000     0.0344772  
H306     H      0.431110000000     0.039020000000     0.510650000000     0.0336632  
H307     H      0.500190000000     0.107920000000     0.507590000000     0.0330347  
H308     H      0.453380000000     0.016280000000     0.491220000000     0.0378608  
H309     H      0.441080000000     0.093320000000     0.617730000000     0.0431911  
H310     H      0.443520000000     0.180330000000     0.626270000000     0.0345117  
H311     H      0.444940000000     0.103010000000     0.485180000000     0.0429143  
H312     H      0.441650000000     0.157790000000     0.570710000000     0.0390786  
H313     H      0.523270000000     0.086160000000     0.487680000000     0.036903   
H314     H      0.368550000000     0.125970000000     0.597800000000     0.0320526  
H315     H      0.456290000000     0.043450000000     0.540620000000     0.03722    
H316     H      0.497080000000     0.084230000000     0.538850000000     0.0370188  
H317     H      0.427240000000     0.123690000000     0.521820000000     0.0400954  
H318     H      0.389020000000     0.104680000000     0.561060000000     0.035902   
H319     H      0.454460000000     0.038120000000     0.458550000000     0.0331723  
H320     H      0.397230000000     0.139190000000     0.521260000000     0.0251342  
H321     H      0.130600000000     0.412500000000     0.924280000000     0.0393589  
H322     H      0.112090000000     0.485180000000     0.921630000000     0.0330848  
H323     H      0.046780000000     0.415410000000     0.902280000000     0.0381629  
H324     H      0.190040000000     0.433240000000     0.816890000000     0.0339594  
H325     H      0.083090000000     0.483620000000     0.965610000000     0.0350264  
H326     H      0.114550000000     0.378790000000     0.847720000000     0.032958   
H327     H      0.177880000000     0.450550000000     0.865750000000     0.0327341  
H328     H      0.143470000000     0.361340000000     0.838120000000     0.0362938  
H329     H      0.102680000000     0.426490000000     0.950070000000     0.0433625  
H330     H      0.084680000000     0.504410000000     0.931020000000     0.0367373  
H331     H      0.122350000000     0.437650000000     0.819770000000     0.0429888  
H332     H      0.091290000000     0.481360000000     0.884790000000     0.0359043  
H333     H      0.207100000000     0.433360000000     0.856230000000     0.0355195  
H334     H      0.030360000000     0.430760000000     0.945960000000     0.0279837  
H335     H      0.135420000000     0.383660000000     0.885000000000     0.035723   
H336     H      0.172000000000     0.425160000000     0.895450000000     0.0354874  
H337     H      0.094760000000     0.451860000000     0.845450000000     0.0392916  
H338     H      0.055640000000     0.441090000000     0.872050000000     0.0407351  
H339     H      0.145650000000     0.382980000000     0.804280000000     0.0332817  
H340     H      0.988810000000     0.417740000000     0.910450000000     0.0288443  
H341     H      0.317690000000     0.305420000000     0.794700000000     0.0395397  
H342     H      0.303840000000     0.246470000000     0.691800000000     0.0333081  
H343     H      0.379320000000     0.306040000000     0.692200000000     0.0380487  
H344     H      0.245420000000     0.318580000000     0.753420000000     0.0340117  
H345     H      0.324670000000     0.223550000000     0.694340000000     0.0364948  
H346     H      0.327730000000     0.362380000000     0.770410000000     0.0333195  
H347     H      0.262360000000     0.291560000000     0.757050000000     0.0329508  
H348     H      0.301940000000     0.374390000000     0.812430000000     0.0339965  
H349     H      0.337400000000     0.282930000000     0.767950000000     0.0437316  
H350     H      0.318110000000     0.223630000000     0.647680000000     0.0344032  
H351     H      0.305890000000     0.326200000000     0.688960000000     0.0435135  
H352     H      0.319170000000     0.262360000000     0.650960000000     0.0349283  
H353     H      0.238230000000     0.305450000000     0.797580000000     0.0350953  
H354     H      0.389210000000     0.274660000000     0.688640000000     0.0289128  
H355     H      0.312970000000     0.342210000000     0.808360000000     0.0346757  
H356     H      0.275810000000     0.302490000000     0.800920000000     0.0351076  
H357     H      0.325770000000     0.304020000000     0.662240000000     0.0393369  
H358     H      0.360570000000     0.297200000000     0.652090000000     0.0401779  
H359     H      0.295980000000     0.373620000000     0.765330000000     0.0356825  
H360     H      0.419000000000     0.290750000000     0.633430000000     0.0309487  
H361     H      0.473290000000     0.465230000000     0.781120000000     0.0396771  
H362     H      0.486800000000     0.516160000000     0.650060000000     0.0333014  
H363     H      0.521780000000     0.474180000000     0.678030000000     0.0361832  
H364     H      0.493220000000     0.528840000000     0.876570000000     0.0345827  
H365     H      0.477230000000     0.488970000000     0.599920000000     0.0326141  
H366     H      0.537800000000     0.504130000000     0.816850000000     0.032988   
H367     H      0.469510000000     0.506040000000     0.824900000000     0.0331227  
H368     H      0.537760000000     0.498360000000     0.883670000000     0.0363602  
H369     H      0.471320000000     0.459590000000     0.715830000000     0.043301   
H370     H      0.502030000000     0.518730000000     0.585590000000     0.0363825  
H371     H      0.531430000000     0.542100000000     0.768070000000     0.0430001  
H372     H      0.520420000000     0.529250000000     0.644370000000     0.0356626  
H373     H      0.468970000000     0.498960000000     0.892010000000     0.0372584  
H374     H      0.506310000000     0.457870000000     0.620350000000     0.0318591  
H375     H      0.509510000000     0.477390000000     0.833480000000     0.0368652  
H376     H      0.470350000000     0.478380000000     0.838000000000     0.0356068  
H377     H      0.530650000000     0.536100000000     0.703190000000     0.0388919  
H378     H      0.540230000000     0.505900000000     0.662970000000     0.0395738  
H379     H      0.542790000000     0.528300000000     0.869870000000     0.0353095  
H380     H      0.559920000000     0.473500000000     0.636520000000     0.0222692  
H381     H      0.530970000000     0.468030000000     0.199680000000     0.0395889  
H382     H      0.567360000000     0.520860000000     0.325740000000     0.0336775  
H383     H      0.505490000000     0.446640000000     0.324000000000     0.0382824  
H384     H      0.548330000000     0.541200000000     0.125390000000     0.033825   
H385     H      0.577640000000     0.495930000000     0.365260000000     0.0328676  
H386     H      0.481890000000     0.486510000000     0.178340000000     0.0331435  
H387     H      0.561660000000     0.520950000000     0.168670000000     0.0336259  
H388     H      0.477860000000     0.488120000000     0.111480000000     0.0361363  
H389     H      0.538370000000     0.459850000000     0.261530000000     0.0424791  
H390     H      0.573500000000     0.517870000000     0.391460000000     0.0378034  
H391     H      0.514370000000     0.524230000000     0.237520000000     0.0427923  
H392     H      0.539310000000     0.513380000000     0.351490000000     0.038043   
H393     H      0.558260000000     0.522360000000     0.101690000000     0.0377396  
H394     H      0.539680000000     0.449960000000     0.361870000000     0.027704   
H395     H      0.495440000000     0.470630000000     0.154380000000     0.0375631  
H396     H      0.541970000000     0.490800000000     0.148290000000     0.0365411  
H397     H      0.519470000000     0.514400000000     0.299650000000     0.0397912  
H398     H      0.503210000000     0.469960000000     0.350320000000     0.0427147  
H399     H      0.494600000000     0.518360000000     0.132300000000     0.0352719  
H400     H      0.513500000000     0.419020000000     0.418060000000     0.0343806  
H401     H      0.881250000000     0.233350000000     0.834740000000     0.0393219  
H402     H      0.853050000000     0.237120000000     0.965020000000     0.0330249  
H403     H      0.901230000000     0.206220000000     0.957280000000     0.0392873  
H404     H      0.805180000000     0.163150000000     0.768070000000     0.0349729  
H405     H      0.887150000000     0.257870000000     0.008840000000     0.0337872  
H406     H      0.877180000000     0.179890000000     0.811080000000     0.0332892  
H407     H      0.817410000000     0.196150000000     0.811450000000     0.0331103  
H408     H      0.874190000000     0.175600000000     0.743930000000     0.0371866  
H409     H      0.894870000000     0.248430000000     0.896250000000     0.0426837  
H410     H      0.857400000000     0.239480000000     0.031520000000     0.0362948  
H411     H      0.826170000000     0.161280000000     0.876260000000     0.0432896  
H412     H      0.842730000000     0.206990000000     0.985180000000     0.0373975  
H413     H      0.814010000000     0.191560000000     0.744160000000     0.0363601  
H414     H      0.916880000000     0.238980000000     0.002600000000     0.024461   
H415     H      0.880930000000     0.207110000000     0.787750000000     0.0359497  
H416     H      0.846410000000     0.216510000000     0.788060000000     0.0361407  
H417     H      0.839160000000     0.176620000000     0.937780000000     0.039939   
H418     H      0.871640000000     0.188640000000     0.981070000000     0.0439273  
H419     H      0.847350000000     0.151930000000     0.767660000000     0.0338549  
H420     H      0.933720000000     0.219040000000     0.052520000000     0.0323341  
H421     H      0.803860000000     0.133800000000     0.406840000000     0.0393014  
H422     H      0.832620000000     0.208560000000     0.310410000000     0.0333475  
H423     H      0.868130000000     0.164810000000     0.308140000000     0.0378503  
H424     H      0.812080000000     0.179910000000     0.521390000000     0.0360218  
H425     H      0.827230000000     0.195640000000     0.249590000000     0.0339721  
H426     H      0.858920000000     0.153400000000     0.461270000000     0.0329072  
H427     H      0.798990000000     0.169170000000     0.461990000000     0.0332409  
H428     H      0.845570000000     0.135630000000     0.525420000000     0.0333529  
H429     H      0.810500000000     0.142330000000     0.342070000000     0.0431146  
H430     H      0.852640000000     0.227160000000     0.250170000000     0.0371363  
H431     H      0.867910000000     0.206300000000     0.429210000000     0.0437785  
H432     H      0.866570000000     0.223180000000     0.308170000000     0.0352463  
H433     H      0.787240000000     0.148370000000     0.525520000000     0.0344497  
H434     H      0.856640000000     0.162760000000     0.247300000000     0.0287363  
H435     H      0.826610000000     0.129080000000     0.467110000000     0.0346924  
H436     H      0.793130000000     0.137760000000     0.466690000000     0.0335136  
H437     H      0.875330000000     0.214360000000     0.364770000000     0.0392629  
H438     H      0.886490000000     0.198310000000     0.309060000000     0.041147   
H439     H      0.863020000000     0.168700000000     0.519920000000     0.0374478  
H440     H      0.900030000000     0.169890000000     0.223750000000     0.0295585  
H441     H      0.229020000000     0.380910000000     0.523420000000     0.0396725  
H442     H      0.241320000000     0.418900000000     0.644320000000     0.0334681  
H443     H      0.186980000000     0.341600000000     0.652330000000     0.0323196  
H444     H      0.171330000000     0.400070000000     0.446210000000     0.0338217  
H445     H      0.258540000000     0.403690000000     0.689330000000     0.032909   
H446     H      0.170890000000     0.338990000000     0.496000000000     0.0331162  
H447     H      0.202340000000     0.417620000000     0.494400000000     0.0330531  
H448     H      0.170800000000     0.337850000000     0.428950000000     0.0373699  
H449     H      0.241010000000     0.380810000000     0.586210000000     0.043108   
H450     H      0.246280000000     0.420750000000     0.713100000000     0.0332575  
H451     H      0.160810000000     0.379410000000     0.558080000000     0.0425284  
H452     H      0.212500000000     0.409130000000     0.669120000000     0.0364917  
H453     H      0.202530000000     0.417500000000     0.427250000000     0.0367645  
H454     H      0.222120000000     0.349610000000     0.691650000000     0.0297394  
H455     H      0.201900000000     0.357880000000     0.476700000000     0.0371406  
H456     H      0.220630000000     0.404650000000     0.475930000000     0.0370749  
H457     H      0.173510000000     0.380480000000     0.621140000000     0.0394283  
H458     H      0.181530000000     0.364250000000     0.675480000000     0.0359348  
H459     H      0.151090000000     0.349030000000     0.447230000000     0.0328496  
H460     H      0.193500000000     0.318040000000     0.738380000000    -0.00629507 
H461     H      0.251440000000     0.371010000000     0.112960000000     0.0390258  
H462     H      0.194700000000     0.326410000000     0.995880000000     0.0337299  
H463     H      0.257710000000     0.399900000000     0.986010000000     0.0316433  
H464     H      0.178990000000     0.346070000000     0.197230000000     0.034206   
H465     H      0.218920000000     0.323930000000     0.946650000000     0.0319748  
H466     H      0.231960000000     0.414660000000     0.142990000000     0.0328239  
H467     H      0.198340000000     0.336040000000     0.149160000000     0.0332355  
H468     H      0.234390000000     0.417080000000     0.210980000000     0.035465   
H469     H      0.256640000000     0.364790000000     0.049160000000     0.0422864  
H470     H      0.191420000000     0.323030000000     0.927100000000     0.0342274  
H471     H      0.186440000000     0.378220000000     0.087260000000     0.0430074  
H472     H      0.190390000000     0.349930000000     0.973560000000     0.0359867  
H473     H      0.201440000000     0.338880000000     0.216700000000     0.0371746  
H474     H      0.262950000000     0.372770000000     0.943130000000     0.0291983  
H475     H      0.249030000000     0.400820000000     0.162820000000     0.0357882  
H476     H      0.229740000000     0.355820000000     0.166660000000     0.0352683  
H477     H      0.192740000000     0.373740000000     0.023150000000     0.03945    
H478     H      0.227680000000     0.392920000000     0.966590000000     0.0370165  
H479     H      0.203100000000     0.403120000000     0.192590000000     0.0364757  
H480     H      0.283580000000     0.406470000000     0.894610000000    -0.00594684 
H481     H      0.993600000000     0.294830000000     0.252070000000     0.0401302  
H482     H      0.076520000000     0.302070000000     0.274910000000     0.0328526  
H483     H      0.088970000000     0.375230000000     0.260650000000     0.0389575  
H484     H      0.972520000000     0.255860000000     0.125190000000     0.0329794  
H485     H      0.101230000000     0.327400000000     0.325470000000     0.0337466  
H486     H      0.982100000000     0.318800000000     0.181620000000     0.0337306  
H487     H      0.997230000000     0.258880000000     0.178040000000     0.0331123  
H488     H      0.937810000000     0.290460000000     0.159890000000     0.0377372  
H489     H      0.031430000000     0.315680000000     0.290040000000     0.0430838  
H490     H      0.119340000000     0.318110000000     0.298330000000     0.0383312  
H491     H      0.040710000000     0.315460000000     0.157680000000     0.0431659  
H492     H      0.100130000000     0.322580000000     0.243130000000     0.0374141  
H493     H      0.953920000000     0.230320000000     0.155040000000     0.0378395  
H494     H      0.112220000000     0.377220000000     0.314040000000     0.0256646  
H495     H      0.964090000000     0.292070000000     0.210190000000     0.0370855  
H496     H      0.972950000000     0.256790000000     0.207920000000     0.0383291  
H497     H      0.078480000000     0.335140000000     0.195580000000     0.0396976  
H498     H      0.106460000000     0.364900000000     0.233540000000     0.0418489  
H499     H      0.961780000000     0.294930000000     0.128020000000     0.0334734  
H500     H      0.149750000000     0.422110000000     0.299560000000     0.0290917  
H501     H      0.357730000000     0.434960000000     0.324610000000     0.0393258  
H502     H      0.425880000000     0.486800000000     0.422180000000     0.0337965  
H503     H      0.426060000000     0.421720000000     0.386820000000     0.0369635  
H504     H      0.281370000000     0.426250000000     0.388720000000     0.03377    
H505     H      0.469450000000     0.497290000000     0.410370000000     0.0345976  
H506     H      0.310560000000     0.376920000000     0.362910000000     0.0330131  
H507     H      0.325080000000     0.451150000000     0.373090000000     0.033173   
H508     H      0.267980000000     0.364410000000     0.335110000000     0.0356552  
H509     H      0.402890000000     0.452410000000     0.338170000000     0.0427921  
H510     H      0.465210000000     0.499810000000     0.457820000000     0.0342306  
H511     H      0.339270000000     0.411410000000     0.434820000000     0.0431462  
H512     H      0.422390000000     0.464370000000     0.455990000000     0.0378727  
H513     H      0.282820000000     0.438510000000     0.344650000000     0.037142   
H514     H      0.468950000000     0.457620000000     0.387680000000     0.0248667  
H515     H      0.312130000000     0.394620000000     0.323530000000     0.0360148  
H516     H      0.320320000000     0.437050000000     0.329300000000     0.0353569  
H517     H      0.384170000000     0.427640000000     0.447940000000     0.0401634  
H518     H      0.422600000000     0.424730000000     0.434450000000     0.0431471  
H519     H      0.270850000000     0.372370000000     0.381840000000     0.0351903  
H520     H      0.450690000000     0.402300000000     0.413250000000     0.022989   
H521     H      0.523850000000     0.024440000000     0.773420000000     0.0405049  
H522     H      0.570660000000     0.063820000000     0.644070000000     0.0330782  
H523     H      0.522770000000     0.986170000000     0.658410000000     0.0377519  
H524     H      0.594850000000     0.063440000000     0.860700000000     0.0332074  
H525     H      0.541080000000     0.052680000000     0.596030000000     0.0331866  
H526     H      0.562240000000     0.995810000000     0.804130000000     0.0330037  
H527     H      0.571680000000     0.068530000000     0.811330000000     0.0335209  
H528     H      0.559640000000     0.991630000000     0.870660000000     0.037455   
H529     H      0.514560000000     0.022350000000     0.709080000000     0.0431486  
H530     H      0.570020000000     0.057340000000     0.577120000000     0.0375243  
H531     H      0.598080000000     0.036010000000     0.749290000000     0.0428809  
H532     H      0.580670000000     0.042280000000     0.629580000000     0.0354866  
H533     H      0.568360000000     0.065060000000     0.878420000000     0.0378617  
H534     H      0.505690000000     0.993670000000     0.605660000000     0.028402   
H535     H      0.536700000000     0.999260000000     0.822220000000     0.038355   
H536     H      0.542290000000     0.042420000000     0.826720000000     0.0381812  
H537     H      0.588120000000     0.032050000000     0.685150000000     0.0392896  
H538     H      0.553930000000     0.998350000000     0.639730000000     0.0416384  
H539     H      0.589320000000     0.017100000000     0.855470000000     0.0338782  
H540     H      0.499070000000     0.953040000000     0.574240000000     0.029977   
H541     H      0.522900000000     0.038130000000     0.182260000000     0.0393988  
H542     H      0.468060000000     0.984850000000     0.309500000000     0.0329859  
H543     H      0.547030000000     0.024060000000     0.290440000000     0.0374841  
H544     H      0.468850000000     0.992420000000     0.083820000000     0.0331277  
H545     H      0.484290000000     0.011620000000     0.360370000000     0.0332484  
H546     H      0.511380000000     0.969680000000     0.146710000000     0.0325545  
H547     H      0.484260000000     0.020690000000     0.134700000000     0.0332834  
H548     H      0.518260000000     0.970240000000     0.081000000000     0.0368851  
H549     H      0.525980000000     0.042850000000     0.247180000000     0.0423504  
H550     H      0.476350000000     0.981100000000     0.375190000000     0.0374082  
H551     H      0.475890000000     0.958330000000     0.194520000000     0.0417993  
H552     H      0.486980000000     0.970450000000     0.318670000000     0.0353829  
H553     H      0.492120000000     0.022800000000     0.068320000000     0.0376337  
H554     H      0.543380000000     0.041010000000     0.346110000000     0.0288322  
H555     H      0.532490000000     0.000800000000     0.130570000000     0.0392572  
H556     H      0.516770000000     0.030650000000     0.123180000000     0.0377457  
H557     H      0.481150000000     0.962830000000     0.259270000000     0.0388365  
H558     H      0.531300000000     0.992430000000     0.306560000000     0.0422958  
H559     H      0.485610000000     0.958680000000     0.092490000000     0.0340557  
H560     H      0.583220000000     0.041810000000     0.374340000000     0.0310232  
H561     H      0.737200000000     0.128300000000     0.034960000000     0.0396305  
H562     H      0.652350000000     0.041360000000     0.040480000000     0.0335895  
H563     H      0.644940000000     0.105240000000     0.054230000000     0.037843   
H564     H      0.787240000000     0.127920000000     0.144050000000     0.0345973  
H565     H      0.622450000000     0.035130000000     0.995560000000     0.0357702  
H566     H      0.743580000000     0.161250000000     0.111920000000     0.0331011  
H567     H      0.760480000000     0.103330000000     0.095040000000     0.033377   
H568     H      0.789350000000     0.191680000000     0.122470000000     0.0371917  
H569     H      0.694710000000     0.104430000000     0.008650000000     0.043565   
H570     H      0.604580000000     0.015470000000     0.032020000000     0.0361613  
H571     H      0.706430000000     0.099160000000     0.139640000000     0.0432339  
H572     H      0.633230000000     0.042830000000     0.076170000000     0.0352222  
H573     H      0.806680000000     0.133590000000     0.105070000000     0.0374776  
H574     H      0.613730000000     0.085370000000     0.010760000000     0.0284379  
H575     H      0.763700000000     0.163470000000     0.074940000000     0.0362175  
H576     H      0.773440000000     0.129760000000     0.065040000000     0.0362259  
H577     H      0.664050000000     0.075310000000     0.113470000000     0.0391714  
H578     H      0.631040000000     0.079800000000     0.085540000000     0.0403874  
H579     H      0.775340000000     0.167590000000     0.155820000000     0.0337782  
H580     H      0.579630000000     0.091020000000     0.044640000000     0.0292516  
H581     H      0.202010000000     0.886230000000     0.596940000000     0.0393615  
H582     H      0.251330000000     0.878900000000     0.466140000000     0.0328768  
H583     H      0.174080000000     0.844580000000     0.496020000000     0.0376763  
H584     H      0.254200000000     0.894100000000     0.697460000000     0.0331222  
H585     H      0.231520000000     0.885310000000     0.415140000000     0.0336264  
H586     H      0.214940000000     0.829580000000     0.631580000000     0.0323474  
H587     H      0.238590000000     0.906380000000     0.646130000000     0.0332355  
H588     H      0.207580000000     0.822010000000     0.696600000000     0.0368593  
H589     H      0.197070000000     0.885350000000     0.532180000000     0.0422617  
H590     H      0.238330000000     0.861220000000     0.403710000000     0.0373226  
H591     H      0.250270000000     0.853990000000     0.585890000000     0.0417913  
H592     H      0.231250000000     0.845370000000     0.463820000000     0.0357711  
H593     H      0.228910000000     0.898830000000     0.712180000000     0.0376982  
H594     H      0.175150000000     0.860670000000     0.437180000000     0.0291735  
H595     H      0.192800000000     0.838540000000     0.647840000000     0.0387378  
H596     H      0.206250000000     0.882950000000     0.656140000000     0.0371801  
H597     H      0.243110000000     0.850580000000     0.521660000000     0.0386763  
H598     H      0.187870000000     0.826210000000     0.481770000000     0.0431702  
H599     H      0.240120000000     0.843850000000     0.686190000000     0.0341613  
H600     H      0.132430000000     0.821410000000     0.417150000000     0.0316397  
H601     H      0.127300000000     0.794060000000     0.018200000000     0.0393758  
H602     H      0.178220000000     0.795810000000     0.137540000000     0.033187   
H603     H      0.141200000000     0.838280000000     0.135990000000     0.0383149  
H604     H      0.194230000000     0.813830000000     0.926170000000     0.0353741  
H605     H      0.152950000000     0.785530000000     0.191550000000     0.0328748  
H606     H      0.163350000000     0.856610000000     0.982240000000     0.0330657  
H607     H      0.169990000000     0.791790000000     0.976510000000     0.0331189  
H608     H      0.159040000000     0.855420000000     0.913680000000     0.0346077  
H609     H      0.122610000000     0.789170000000     0.083730000000     0.0427759  
H610     H      0.185760000000     0.802690000000     0.203150000000     0.0377681  
H611     H      0.204680000000     0.852600000000     0.031620000000     0.0434925  
H612     H      0.195800000000     0.828400000000     0.149660000000     0.0371669  
H613     H      0.164120000000     0.791800000000     0.908040000000     0.0355833  
H614     H      0.128850000000     0.815880000000     0.192020000000     0.0268724  
H615     H      0.138350000000     0.827980000000     0.963700000000     0.035378   
H616     H      0.141960000000     0.791550000000     0.960680000000     0.0341939  
H617     H      0.199650000000     0.848780000000     0.096850000000     0.0396403  
H618     H      0.174410000000     0.853360000000     0.146800000000     0.0425995  
H619     H      0.189870000000     0.865620000000     0.931570000000     0.0365924  
H620     H      0.130210000000     0.853670000000     0.226570000000     0.0293529  
H621     H      0.331710000000     0.906290000000     0.925200000000     0.0396912  
H622     H      0.422010000000     0.916630000000     0.908170000000     0.0331892  
H623     H      0.419000000000     0.983280000000     0.900540000000     0.0381036  
H624     H      0.283080000000     0.858330000000     0.812500000000     0.035316   
H625     H      0.452160000000     0.941070000000     0.951700000000     0.0361031  
H626     H      0.316720000000     0.932490000000     0.859140000000     0.0334813  
H627     H      0.312520000000     0.862040000000     0.857960000000     0.0330292  
H628     H      0.269220000000     0.911080000000     0.852340000000     0.0369894  
H629     H      0.375410000000     0.928380000000     0.947800000000     0.0436161  
H630     H      0.470330000000     0.943360000000     0.912890000000     0.0349647  
H631     H      0.359610000000     0.915920000000     0.816630000000     0.0433484  
H632     H      0.438000000000     0.938570000000     0.872450000000     0.0348794  
H633     H      0.264940000000     0.841070000000     0.850730000000     0.035824   
H634     H      0.452630000000     0.998240000000     0.940120000000     0.0287054  
H635     H      0.298980000000     0.909610000000     0.893180000000     0.0357048  
H636     H      0.296630000000     0.869440000000     0.892520000000     0.0357126  
H637     H      0.403150000000     0.937400000000     0.839110000000     0.0391569  
H638     H      0.434040000000     0.974740000000     0.866480000000     0.0401073  
H639     H      0.286090000000     0.910120000000     0.813600000000     0.0345467  
H640     H      0.482790000000     0.038320000000     0.904330000000     0.0296708  
H641     H      0.799940000000     0.618710000000     0.929270000000     0.0393675  
H642     H      0.861800000000     0.667290000000     0.839950000000     0.0335036  
H643     H      0.835780000000     0.593620000000     0.806200000000     0.0406313  
H644     H      0.860790000000     0.658800000000     0.036370000000     0.0376879  
H645     H      0.845470000000     0.661250000000     0.780700000000     0.0389694  
H646     H      0.810590000000     0.587730000000     0.990640000000     0.0323975  
H647     H      0.854630000000     0.665900000000     0.974400000000     0.0333253  
H648     H      0.796180000000     0.595330000000     0.050530000000     0.0394949  
H649     H      0.805930000000     0.619090000000     0.864190000000     0.0434541  
H650     H      0.879150000000     0.679080000000     0.776330000000     0.0309     
H651     H      0.874170000000     0.628140000000     0.946120000000     0.0432335  
H652     H      0.885650000000     0.659390000000     0.828490000000     0.039305   
H653     H      0.841690000000     0.673450000000     0.034960000000     0.0340838  
H654     H      0.858800000000     0.605040000000     0.754690000000     0.0286698  
H655     H      0.795230000000     0.606200000000     0.988870000000     0.035341   
H656     H      0.820820000000     0.651550000000     0.979840000000     0.0368126  
H657     H      0.880520000000     0.629510000000     0.880910000000     0.0408553  
H658     H      0.865700000000     0.606090000000     0.827470000000     0.0385326  
H659     H      0.829210000000     0.604120000000     0.049090000000     0.0526801  
H660     H      0.909920000000     0.637020000000     0.742010000000     0.0375073  
H661     H      0.818580000000     0.610990000000     0.379960000000     0.0393794  
H662     H      0.868720000000     0.645380000000     0.472980000000     0.0323269  
H663     H      0.824040000000     0.678620000000     0.495330000000     0.0377193  
H664     H      0.843320000000     0.679160000000     0.273460000000     0.0361466  
H665     H      0.855230000000     0.631200000000     0.531700000000     0.0377195  
H666     H      0.787170000000     0.615520000000     0.332240000000     0.0335437  
H667     H      0.863300000000     0.674260000000     0.325900000000     0.0324671  
H668     H      0.789510000000     0.606390000000     0.265610000000     0.0375551  
H669     H      0.825470000000     0.616320000000     0.444600000000     0.041939   
H670     H      0.886500000000     0.657050000000     0.536680000000     0.0327121  
H671     H      0.837100000000     0.687830000000     0.370310000000     0.0424428  
H672     H      0.882720000000     0.677800000000     0.484360000000     0.0368474  
H673     H      0.863360000000     0.667120000000     0.259760000000     0.035133   
H674     H      0.826150000000     0.670130000000     0.554270000000     0.0281542  
H675     H      0.812080000000     0.609370000000     0.319440000000     0.0349725  
H676     H      0.854840000000     0.642710000000     0.314670000000     0.0371039  
H677     H      0.846320000000     0.693960000000     0.433780000000     0.0386705  
H678     H      0.857760000000     0.696870000000     0.490020000000     0.0390058  
H679     H      0.787620000000     0.633660000000     0.275760000000     0.0346518  
H680     H      0.848630000000     0.714250000000     0.582350000000     0.0291872  
H681     H      0.725860000000     0.575670000000     0.567550000000     0.0404886  
H682     H      0.637560000000     0.494380000000     0.528380000000     0.0382847  
H683     H      0.633870000000     0.544740000000     0.600760000000     0.0368345  
H684     H      0.774520000000     0.561300000000     0.667570000000     0.0339192  
H685     H      0.594090000000     0.468790000000     0.526020000000     0.0354863  
H686     H      0.728810000000     0.593820000000     0.654000000000     0.0334449  
H687     H      0.749800000000     0.542570000000     0.613600000000     0.0332714  
H688     H      0.773750000000     0.623950000000     0.669780000000     0.0379113  
H689     H      0.684040000000     0.555870000000     0.538800000000     0.0442239  
H690     H      0.590280000000     0.470870000000     0.573340000000     0.0317002  
H691     H      0.693880000000     0.527000000000     0.659010000000     0.0427601  
H692     H      0.632590000000     0.483140000000     0.573690000000     0.0315998  
H693     H      0.795050000000     0.571960000000     0.629100000000     0.0374779  
H694     H      0.606980000000     0.539360000000     0.551730000000     0.0347356  
H695     H      0.749810000000     0.602860000000     0.615860000000     0.0374867  
H696     H      0.762180000000     0.572550000000     0.591970000000     0.037641   
H697     H      0.652230000000     0.506790000000     0.629890000000     0.0387395  
H698     H      0.617170000000     0.512140000000     0.613000000000     0.038252   
H699     H      0.760820000000     0.595000000000     0.693840000000     0.0336074  
H700     H      0.586070000000     0.532260000000     0.629130000000     0.0231781  
H701     H      0.988430000000     0.740520000000     0.749360000000     0.0397969  
H702     H      0.077700000000     0.757840000000     0.743810000000     0.0331702  
H703     H      0.078090000000     0.826360000000     0.746630000000     0.0380567  
H704     H      0.956530000000     0.701920000000     0.624530000000     0.0337717  
H705     H      0.104510000000     0.779800000000     0.793440000000     0.0350804  
H706     H      0.967130000000     0.763090000000     0.686590000000     0.0332647  
H707     H      0.987190000000     0.707260000000     0.670290000000     0.0333141  
H708     H      0.921700000000     0.732130000000     0.673160000000     0.0376066  
H709     H      0.029590000000     0.763990000000     0.779450000000     0.0431774  
H710     H      0.123890000000     0.779980000000     0.757250000000     0.0370063  
H711     H      0.024790000000     0.766240000000     0.646550000000     0.0431373  
H712     H      0.096680000000     0.782300000000     0.712380000000     0.0362442  
H713     H      0.942660000000     0.676140000000     0.655330000000     0.0374829  
H714     H      0.108680000000     0.834160000000     0.791020000000     0.0270714  
H715     H      0.953840000000     0.736240000000     0.715870000000     0.0362917  
H716     H      0.965560000000     0.703320000000     0.706080000000     0.037442   
H717     H      0.065930000000     0.788860000000     0.676340000000     0.03925    
H718     H      0.094850000000     0.820350000000     0.712020000000     0.0405383  
H719     H      0.942620000000     0.738250000000     0.635830000000     0.0343268  
H720     H      0.139380000000     0.878960000000     0.767110000000     0.02827    
N1       N      0.687340000000     0.901070000000     0.782780000000    -0.184057   
N2       N      0.710180000000     0.946530000000     0.743920000000    -0.111619   
N3       N      0.764800000000     0.047580000000     0.695700000000    -0.11296    
N4       N      0.791310000000     0.094410000000     0.662430000000    -0.181112   
N5       N      0.970190000000     0.427760000000     0.489360000000    -0.183828   
N6       N      0.948420000000     0.381530000000     0.523740000000    -0.110569   
N7       N      0.897990000000     0.281580000000     0.576410000000    -0.112925   
N8       N      0.871660000000     0.235350000000     0.611380000000    -0.181076   
N9       N      0.035350000000     0.571530000000     0.455320000000    -0.184137   
N10      N      0.058110000000     0.618320000000     0.422000000000    -0.110952   
N11      N      0.113240000000     0.719090000000     0.373140000000    -0.112935   
N12      N      0.140030000000     0.765450000000     0.338480000000    -0.180941   
N13      N      0.540350000000     0.577980000000     0.994200000000    -0.183813   
N14      N      0.558810000000     0.624220000000     0.963130000000    -0.110206   
N15      N      0.603450000000     0.722960000000     0.906420000000    -0.113268   
N16      N      0.625110000000     0.767230000000     0.865710000000    -0.181161   
N17      N      0.224370000000     0.906300000000     0.288990000000    -0.183855   
N18      N      0.253030000000     0.953810000000     0.257640000000    -0.111156   
N19      N      0.314450000000     0.056170000000     0.218760000000    -0.113374   
N20      N      0.338690000000     0.103330000000     0.185310000000    -0.181385   
N21      N      0.484120000000     0.433430000000     0.000670000000    -0.183901   
N22      N      0.466600000000     0.385390000000     0.026700000000    -0.110753   
N23      N      0.426010000000     0.283050000000     0.064720000000    -0.113488   
N24      N      0.403810000000     0.236110000000     0.098880000000    -0.181393   
N25      N      0.651920000000     0.805760000000     0.725600000000    -0.184946   
N26      N      0.653910000000     0.797490000000     0.650770000000    -0.112819   
N27      N      0.660380000000     0.810390000000     0.498580000000    -0.113008   
N28      N      0.665060000000     0.810420000000     0.423470000000    -0.180844   
N29      N      0.659680000000     0.858490000000     0.919130000000    -0.185159   
N30      N      0.664680000000     0.862330000000     0.995140000000    -0.112765   
N31      N      0.670780000000     0.836740000000     0.140790000000    -0.113431   
N32      N      0.669340000000     0.830190000000     0.215850000000    -0.181271   
N33      N      0.777800000000     0.671760000000     0.161380000000    -0.184441   
N34      N      0.753030000000     0.697990000000     0.185360000000    -0.112844   
N35      N      0.715800000000     0.746640000000     0.276750000000    -0.113723   
N36      N      0.695900000000     0.776050000000     0.303540000000    -0.181429   
N37      N      0.639290000000     0.862960000000     0.339890000000    -0.18409    
N38      N      0.621800000000     0.896260000000     0.360090000000    -0.112319   
N39      N      0.588570000000     0.952240000000     0.442630000000    -0.1137     
N40      N      0.564310000000     0.978460000000     0.465790000000    -0.181077   
N41      N      0.001910000000     0.510010000000     0.575700000000    -0.185113   
N42      N      0.003800000000     0.520770000000     0.649960000000    -0.112042   
N43      N      0.004840000000     0.516790000000     0.802880000000    -0.112226   
N44      N      0.002530000000     0.514330000000     0.876990000000    -0.180973   
N45      N      0.003430000000     0.489060000000     0.369450000000    -0.187537   
N46      N      0.006230000000     0.494780000000     0.293140000000    -0.111232   
N47      N      0.019240000000     0.476620000000     0.146990000000    -0.113846   
N48      N      0.020260000000     0.478950000000     0.071520000000    -0.18262    
N49      N      0.860280000000     0.610230000000     0.129800000000    -0.185917   
N50      N      0.888220000000     0.586380000000     0.112600000000    -0.110479   
N51      N      0.941820000000     0.547490000000     0.035680000000    -0.113365   
N52      N      0.970850000000     0.526280000000     0.012020000000    -0.181306   
N53      N      0.360940000000     0.141930000000     0.045160000000    -0.185571   
N54      N      0.361820000000     0.143950000000     0.969060000000    -0.113019   
N55      N      0.370440000000     0.179490000000     0.825370000000    -0.113351   
N56      N      0.375040000000     0.187270000000     0.750430000000    -0.181361   
N57      N      0.383470000000     0.203820000000     0.542930000000    -0.184376   
N58      N      0.387100000000     0.208840000000     0.467670000000    -0.11142    
N59      N      0.382010000000     0.196300000000     0.315430000000    -0.112676   
N60      N      0.381820000000     0.194670000000     0.240630000000    -0.180642   
N61      N      0.404110000000     0.153370000000     0.619340000000    -0.185577   
N62      N      0.422410000000     0.121680000000     0.594820000000    -0.111481   
N63      N      0.464010000000     0.075020000000     0.507880000000    -0.113707   
N64      N      0.489490000000     0.050000000000     0.484410000000    -0.181493   
N65      N      0.049970000000     0.469360000000     0.933850000000    -0.183865   
N66      N      0.080590000000     0.448520000000     0.916170000000    -0.111462   
N67      N      0.144750000000     0.416130000000     0.853590000000    -0.11361    
N68      N      0.177450000000     0.397350000000     0.838660000000    -0.181799   
N69      N      0.356920000000     0.246050000000     0.662430000000    -0.183929   
N70      N      0.341900000000     0.275840000000     0.698480000000    -0.110654   
N71      N      0.295290000000     0.327600000000     0.757630000000    -0.112915   
N72      N      0.266480000000     0.344170000000     0.794620000000    -0.181534   
N73      N      0.512400000000     0.490660000000     0.593660000000    -0.183109   
N74      N      0.500730000000     0.492250000000     0.666450000000    -0.111353   
N75      N      0.505220000000     0.508350000000     0.817850000000    -0.113186   
N76      N      0.506930000000     0.505080000000     0.893260000000    -0.180764   
N77      N      0.543700000000     0.479180000000     0.395220000000    -0.186352   
N78      N      0.537420000000     0.483200000000     0.320770000000    -0.112732   
N79      N      0.522130000000     0.505600000000     0.177590000000    -0.11331    
N80      N      0.518060000000     0.508820000000     0.102470000000    -0.181224   
N81      N      0.883170000000     0.225000000000     0.032860000000    -0.185703   
N82      N      0.877950000000     0.222770000000     0.957040000000    -0.112881   
N83      N      0.845690000000     0.185710000000     0.815300000000    -0.113396   
N84      N      0.839990000000     0.177670000000     0.740480000000    -0.181511   
N85      N      0.863070000000     0.199390000000     0.239310000000    -0.184199   
N86      N      0.846620000000     0.183170000000     0.310120000000    -0.111448   
N87      N      0.832040000000     0.165810000000     0.461120000000    -0.112349   
N88      N      0.824510000000     0.154300000000     0.533690000000    -0.180623   
N89      N      0.224770000000     0.381030000000     0.717520000000    -0.18762    
N90      N      0.215720000000     0.379600000000     0.644670000000    -0.112873   
N91      N      0.185200000000     0.378180000000     0.499360000000    -0.113724   
N92      N      0.184570000000     0.377400000000     0.423350000000    -0.181478   
N93      N      0.226460000000     0.357160000000     0.920640000000    -0.187918   
N94      N      0.227570000000     0.362680000000     0.994610000000    -0.113061   
N95      N      0.212310000000     0.374970000000     0.142570000000    -0.113169   
N96      N      0.211430000000     0.377530000000     0.218220000000    -0.180656   
N97      N      0.129910000000     0.357230000000     0.295510000000    -0.184362   
N98      N      0.079520000000     0.337680000000     0.269370000000    -0.112555   
N99      N      0.992820000000     0.290940000000     0.178490000000    -0.113733   
N100     N      0.943710000000     0.259130000000     0.151860000000    -0.181911   
N101     N      0.468510000000     0.468180000000     0.441650000000    -0.185925   
N102     N      0.423790000000     0.453680000000     0.401580000000    -0.112644   
N103     N      0.318730000000     0.414030000000     0.373360000000    -0.113326   
N104     N      0.269810000000     0.399160000000     0.347620000000    -0.18121    
N105     N      0.539480000000     0.019310000000     0.578990000000    -0.183899   
N106     N      0.544100000000     0.025640000000     0.654430000000    -0.111742   
N107     N      0.568710000000     0.033000000000     0.803820000000    -0.113754   
N108     N      0.565440000000     0.028720000000     0.879330000000    -0.181539   
N109     N      0.516110000000     0.007780000000     0.371770000000    -0.18438    
N110     N      0.507210000000     0.007540000000     0.297160000000    -0.111288   
N111     N      0.495460000000     0.993580000000     0.144500000000    -0.113141   
N112     N      0.503520000000     0.994820000000     0.069640000000    -0.181896   
N113     N      0.600270000000     0.047370000000     0.023080000000    -0.184193   
N114     N      0.651420000000     0.075280000000     0.042660000000    -0.111118   
N115     N      0.749210000000     0.130100000000     0.106310000000    -0.113668   
N116     N      0.800580000000     0.163650000000     0.121220000000    -0.181684   
N117     N      0.199030000000     0.849540000000     0.411800000000    -0.185364   
N118     N      0.213400000000     0.865390000000     0.483440000000    -0.111276   
N119     N      0.229530000000     0.868970000000     0.635260000000    -0.113122   
N120     N      0.220630000000     0.860570000000     0.709630000000    -0.182297   
N121     N      0.164840000000     0.822280000000     0.208860000000    -0.185248   
N122     N      0.157290000000     0.814810000000     0.133620000000    -0.112384   
N123     N      0.170760000000     0.826410000000     0.981910000000    -0.112774   
N124     N      0.172850000000     0.829930000000     0.907310000000    -0.181433   
N125     N      0.469270000000     0.976430000000     0.926380000000    -0.184369   
N126     N      0.417880000000     0.948830000000     0.909470000000    -0.110891   
N127     N      0.317340000000     0.898490000000     0.854410000000    -0.113274   
N128     N      0.265290000000     0.875350000000     0.839940000000    -0.181524   
N129     N      0.862410000000     0.641230000000     0.759460000000    -0.185946   
N130     N      0.847870000000     0.628610000000     0.829780000000    -0.109976   
N131     N      0.835340000000     0.626390000000     0.980740000000    -0.113197   
N132     N      0.822370000000     0.634880000000     0.049830000000    -0.180825   
N133     N      0.856990000000     0.663480000000     0.554250000000    -0.184383   
N134     N      0.842200000000     0.657820000000     0.483040000000    -0.109621   
N135     N      0.824040000000     0.647530000000     0.331450000000    -0.112827   
N136     N      0.823470000000     0.641430000000     0.256800000000    -0.181837   
N137     N      0.591470000000     0.500490000000     0.543630000000    -0.183437   
N138     N      0.640330000000     0.520850000000     0.566450000000    -0.109967   
N139     N      0.736420000000     0.565700000000     0.635200000000    -0.113796   
N140     N      0.787210000000     0.598940000000     0.653990000000    -0.181799   
N141     N      0.126510000000     0.815230000000     0.769210000000    -0.184079   
N142     N      0.074820000000     0.790600000000     0.749000000000    -0.111724   
N143     N      0.980070000000     0.737430000000     0.676570000000    -0.113786   
N144     N      0.929480000000     0.702700000000     0.659150000000    -0.181764   
O1       O      0.863850000000     0.643110000000     0.600860000000    -0.556288   
O2       O      0.864260000000     0.630580000000     0.700810000000    -0.555876   
O3       O      0.829370000000     0.611610000000     0.648240000000    -0.558339   
O4       O      0.898470000000     0.661770000000     0.653160000000    -0.559404   
O5       O      0.887250000000     0.690540000000     0.662720000000    -0.55777    
O6       O      0.818140000000     0.639700000000     0.662870000000    -0.558986   
O7       O      0.854880000000     0.660450000000     0.712500000000    -0.563477   
O8       O      0.850530000000     0.669990000000     0.613000000000    -0.560644   
O9       O      0.208720000000     0.871130000000     0.762280000000    -0.556872   
O10      O      0.183780000000     0.855400000000     0.857780000000    -0.55735    
O11      O      0.229790000000     0.877780000000     0.827120000000    -0.559031   
O12      O      0.162500000000     0.848720000000     0.792470000000    -0.555571   
O13      O      0.160510000000     0.811840000000     0.788600000000    -0.559753   
O14      O      0.228160000000     0.841040000000     0.822120000000    -0.558754   
O15      O      0.182640000000     0.818850000000     0.853500000000    -0.561811   
O16      O      0.205970000000     0.833880000000     0.757580000000    -0.562419   
O17      O      0.521190000000     0.986470000000     0.021050000000    -0.558283   
O18      O      0.550900000000     0.002730000000     0.928290000000    -0.558108   
O19      O      0.568480000000     0.012160000000     0.996240000000    -0.558417   
O20      O      0.503570000000     0.976960000000     0.953010000000    -0.558134   
O21      O      0.501690000000     0.012050000000     0.951430000000    -0.557392   
O22      O      0.565320000000     0.046540000000     0.998110000000    -0.556589   
O23      O      0.549800000000     0.038230000000     0.929290000000    -0.556485   
O24      O      0.517060000000     0.020330000000     0.020090000000    -0.556634   
O25      O      0.201860000000     0.358440000000     0.273360000000    -0.558867   
O26      O      0.187640000000     0.357970000000     0.372620000000    -0.558036   
O27      O      0.161000000000     0.348340000000     0.311560000000    -0.559806   
O28      O      0.229240000000     0.368420000000     0.334270000000    -0.556181   
O29      O      0.239060000000     0.408300000000     0.331420000000    -0.558354   
O30      O      0.170940000000     0.388070000000     0.308070000000    -0.553914   
O31      O      0.197750000000     0.397910000000     0.369320000000    -0.554567   
O32      O      0.212400000000     0.398500000000     0.269820000000    -0.552015   
O33      O      0.872110000000     0.232650000000     0.088350000000    -0.558374   
O34      O      0.863000000000     0.220750000000     0.188770000000    -0.557569   
O35      O      0.902450000000     0.250040000000     0.146140000000    -0.557332   
O36      O      0.832910000000     0.203560000000     0.131130000000    -0.55965    
O37      O      0.842010000000     0.173010000000     0.125030000000    -0.557597   
O38      O      0.911400000000     0.219330000000     0.141320000000    -0.56031    
O39      O      0.872010000000     0.190110000000     0.183280000000    -0.55646    
O40      O      0.881890000000     0.202610000000     0.083140000000    -0.555859   
O41      O      0.523140000000     0.506570000000     0.536940000000    -0.554269   
O42      O      0.547770000000     0.503020000000     0.444680000000    -0.557022   
O43      O      0.504640000000     0.497130000000     0.469400000000    -0.561263   
O44      O      0.566950000000     0.512700000000     0.512880000000    -0.556166   
O45      O      0.554760000000     0.472170000000     0.516050000000    -0.557855   
O46      O      0.490390000000     0.456830000000     0.480360000000    -0.556541   
O47      O      0.531540000000     0.462050000000     0.451310000000    -0.562007   
O48      O      0.513220000000     0.467070000000     0.546770000000    -0.556212   
O49      O      0.205600000000     0.358570000000     0.766610000000    -0.58329    
O50      O      0.206010000000     0.344400000000     0.865960000000    -0.559261   
O51      O      0.183880000000     0.364620000000     0.825870000000    -0.562354   
O52      O      0.227240000000     0.338700000000     0.806400000000    -0.565356   
O53      O      0.261010000000     0.376650000000     0.813490000000    -0.555794   
O54      O      0.217390000000     0.402650000000     0.833380000000    -0.558521   
O55      O      0.239560000000     0.382690000000     0.873070000000    -0.586129   
O56      O      0.239170000000     0.396910000000     0.773990000000    -0.559104   
O57      O      0.397630000000     0.208280000000     0.700250000000    -0.553444   
O58      O      0.401710000000     0.216800000000     0.598660000000    -0.552501   
O59      O      0.388690000000     0.236660000000     0.654540000000    -0.555807   
O60      O      0.411000000000     0.189770000000     0.644720000000    -0.562373   
O61      O      0.371300000000     0.160100000000     0.633430000000    -0.556582   
O62      O      0.348510000000     0.205900000000     0.653050000000    -0.559742   
O63      O      0.360470000000     0.189170000000     0.594220000000    -0.562835   
O64      O      0.358390000000     0.176280000000     0.693770000000    -0.562566   
O65      O      0.032860000000     0.506860000000     0.024870000000    -0.560291   
O66      O      0.023720000000     0.524500000000     0.930760000000    -0.559473   
O67      O      0.008960000000     0.529700000000     0.996690000000    -0.557527   
O68      O      0.047300000000     0.501930000000     0.958930000000    -0.559371   
O69      O      0.012080000000     0.465100000000     0.953250000000    -0.554101   
O70      O      0.973680000000     0.492830000000     0.991110000000    -0.558001   
O71      O      0.988240000000     0.487740000000     0.925250000000    -0.558598   
O72      O      0.997410000000     0.470140000000     0.019350000000    -0.560256   
O73      O      0.687780000000     0.841510000000     0.271630000000    -0.556569   
O74      O      0.686520000000     0.830550000000     0.372220000000    -0.555875   
O75      O      0.700840000000     0.814820000000     0.314120000000    -0.557287   
O76      O      0.673340000000     0.857240000000     0.329960000000    -0.556142   
O77      O      0.634490000000     0.824670000000     0.324750000000    -0.556351   
O78      O      0.661860000000     0.782120000000     0.309760000000    -0.557424   
O79      O      0.647330000000     0.798190000000     0.367460000000    -0.557019   
O80      O      0.648790000000     0.808840000000     0.266870000000    -0.557979   
O81      O      0.800760000000     0.620860000000     0.102560000000    -0.562538   
O82      O      0.804380000000     0.621760000000     0.204080000000    -0.559089   
O83      O      0.782020000000     0.636690000000     0.156160000000    -0.556111   
O84      O      0.822780000000     0.606480000000     0.148590000000    -0.559252   
O85      O      0.857440000000     0.644140000000     0.147350000000    -0.559866   
O86      O      0.816500000000     0.674130000000     0.155120000000    -0.56026    
O87      O      0.839460000000     0.659060000000     0.202030000000    -0.561953   
O88      O      0.834900000000     0.658860000000     0.100580000000    -0.559695   
O89      O      0.515250000000     0.998500000000     0.529730000000    -0.554415   
O90      O      0.502970000000     0.993910000000     0.429190000000    -0.556801   
O91      O      0.527190000000     0.978800000000     0.474230000000    -0.556688   
O92      O      0.490960000000     0.013610000000     0.484510000000    -0.557902   
O93      O      0.526550000000     0.049650000000     0.475160000000    -0.557169   
O94      O      0.563130000000     0.014970000000     0.467860000000    -0.556899   
O95      O      0.539630000000     0.029150000000     0.421040000000    -0.555654   
O96      O      0.550220000000     0.035300000000     0.521900000000    -0.557579   
O97      O      0.395750000000     0.183760000000     0.190340000000    -0.558221   
O98      O      0.384920000000     0.157160000000     0.096180000000    -0.560608   
O99      O      0.406270000000     0.203270000000     0.123650000000    -0.554961   
O100     O      0.374150000000     0.137590000000     0.162700000000    -0.553995   
O101     O      0.337160000000     0.136710000000     0.161530000000    -0.561775   
O102     O      0.368860000000     0.201460000000     0.120970000000    -0.560325   
O103     O      0.347480000000     0.155050000000     0.094360000000    -0.553066   
O104     O      0.358710000000     0.182820000000     0.188270000000    -0.555548   
O105     O      0.495120000000     0.503460000000     0.051030000000    -0.55552    
O106     O      0.490010000000     0.502490000000     0.949270000000    -0.55582    
O107     O      0.478950000000     0.467860000000     0.000640000000    -0.5548     
O108     O      0.506340000000     0.538160000000     0.999440000000    -0.553954   
O109     O      0.545120000000     0.543430000000     0.993750000000    -0.559883   
O110     O      0.517930000000     0.473370000000     0.997690000000    -0.559212   
O111     O      0.528430000000     0.506730000000     0.944840000000    -0.556819   
O112     O      0.534570000000     0.510360000000     0.046520000000    -0.557427   
O113     O      0.156870000000     0.831810000000     0.265250000000    -0.558243   
O114     O      0.173030000000     0.844240000000     0.364110000000    -0.558373   
O115     O      0.185780000000     0.872570000000     0.304340000000    -0.55437    
O116     O      0.144240000000     0.803600000000     0.325120000000    -0.557383   
O117     O      0.177740000000     0.798420000000     0.319360000000    -0.558167   
O118     O      0.218460000000     0.866700000000     0.294400000000    -0.559232   
O119     O      0.207350000000     0.840770000000     0.355410000000    -0.5598     
O120     O      0.188870000000     0.824540000000     0.257690000000    -0.559499   
O121     O      0.021490000000     0.506880000000     0.525030000000    -0.560989   
O122     O      0.021930000000     0.495890000000     0.424990000000    -0.561585   
O123     O      0.037390000000     0.536070000000     0.466720000000    -0.56064    
O124     O      0.005890000000     0.466320000000     0.483280000000    -0.557978   
O125     O      0.968000000000     0.463200000000     0.478010000000    -0.556262   
O126     O      0.999510000000     0.533030000000     0.461880000000    -0.554908   
O127     O      0.983920000000     0.492620000000     0.419830000000    -0.559048   
O128     O      0.983350000000     0.503210000000     0.520030000000    -0.557525   
O129     O      0.809750000000     0.159740000000     0.587720000000    -0.556924   
O130     O      0.818810000000     0.173780000000     0.687670000000    -0.556819   
O131     O      0.833890000000     0.201090000000     0.626980000000    -0.558453   
O132     O      0.794410000000     0.132030000000     0.648340000000    -0.556942   
O133     O      0.829200000000     0.128740000000     0.647280000000    -0.557936   
O134     O      0.868770000000     0.197940000000     0.626380000000    -0.556048   
O135     O      0.853380000000     0.170130000000     0.686770000000    -0.558944   
O136     O      0.844520000000     0.156370000000     0.586870000000    -0.557637   
O137     O      0.673110000000     0.822280000000     0.778530000000    -0.558649   
O138     O      0.677260000000     0.848610000000     0.871960000000    -0.558293   
O139     O      0.660070000000     0.802730000000     0.845050000000    -0.556308   
O140     O      0.690250000000     0.868060000000     0.805770000000    -0.558479   
O141     O      0.652090000000     0.863920000000     0.798660000000    -0.554417   
O142     O      0.621870000000     0.798660000000     0.837980000000    -0.558161   
O143     O      0.639020000000     0.844230000000     0.865000000000    -0.5546     
O144     O      0.634880000000     0.817820000000     0.771580000000    -0.554051   
S1       S      0.649430000000     0.908520000000     0.807440000000    -0.0415737  
S2       S      0.928710000000     0.414920000000     0.448550000000    -0.045015   
S3       S      0.999270000000     0.578220000000     0.487280000000    -0.0449087  
S4       S      0.507870000000     0.583300000000     0.037070000000    -0.0484011  
S5       S      0.197230000000     0.921000000000     0.330080000000    -0.0419979  
S6       S      0.440790000000     0.420760000000     0.964810000000    -0.0460732  
S7       S      0.599580000000     0.787080000000     0.722310000000    -0.0416665  
S8       S      0.607120000000     0.830580000000     0.923890000000    -0.0422948  
S9       S      0.734270000000     0.625760000000     0.174720000000    -0.0407627  
S10      S      0.595580000000     0.822320000000     0.365930000000    -0.0414035  
S11      S      0.951350000000     0.475330000000     0.578670000000    -0.0422711  
S12      S      0.026190000000     0.463560000000     0.349210000000    -0.0569174  
S13      S      0.847330000000     0.598080000000     0.060550000000    -0.0774978  
S14      S      0.309160000000     0.125950000000     0.047180000000    -0.043195   
S15      S      0.418610000000     0.188830000000     0.546790000000    -0.0406486  
S16      S      0.392430000000     0.150940000000     0.548770000000    -0.0371918  
S17      S      0.010480000000     0.435080000000     0.893580000000    -0.0422273  
S18      S      0.394550000000     0.284890000000     0.626720000000    -0.0459393  
S19      S      0.550850000000     0.482040000000     0.609620000000    -0.029285   
S20      S      0.502690000000     0.429220000000     0.396690000000    -0.0388281  
S21      S      0.914090000000     0.203450000000     0.030550000000    -0.0432448  
S22      S      0.901380000000     0.188960000000     0.244170000000    -0.0449256  
S23      S      0.189490000000     0.337880000000     0.735030000000     0.0815237  
S24      S      0.259710000000     0.401470000000     0.903550000000     0.0824057  
S25      S      0.143040000000     0.405050000000     0.272340000000    -0.0402585  
S26      S      0.470390000000     0.425590000000     0.421220000000    -0.0262199  
S27      S      0.523540000000     0.969570000000     0.583840000000    -0.0437234  
S28      S      0.564970000000     0.019050000000     0.361720000000    -0.0460853  
S29      S      0.587450000000     0.076540000000     0.062130000000    -0.0445207  
S30      S      0.150320000000     0.816390000000     0.430680000000    -0.0456376  
S31      S      0.151820000000     0.859070000000     0.208200000000    -0.0412679  
S32      S      0.476430000000     0.016390000000     0.887080000000    -0.0454049  
S33      S      0.899930000000     0.632630000000     0.775960000000    -0.0589972  
S34      S      0.863110000000     0.709750000000     0.558720000000    -0.0455004  
S35      S      0.576450000000     0.518920000000     0.598080000000    -0.033705   
S36      S      0.134450000000     0.860130000000     0.743390000000    -0.0416113  
V1       V      0.864390000000     0.635580000000     0.650300000000     1.38676    
V2       V      0.852220000000     0.666280000000     0.663240000000     1.40192    
V3       V      0.196200000000     0.864700000000     0.810150000000     1.39048    
V4       V      0.194200000000     0.824920000000     0.805340000000     1.4002     
V5       V      0.536130000000     0.993190000000     0.974650000000     1.39191    
V6       V      0.533390000000     0.030690000000     0.974740000000     1.39139    
V7       V      0.194620000000     0.356740000000     0.323150000000     1.39257    
V8       V      0.205460000000     0.399790000000     0.319490000000     1.38355    
V9       V      0.867260000000     0.227980000000     0.138800000000     1.39018    
V10      V      0.877130000000     0.195010000000     0.132940000000     1.39601    
V11      V      0.536290000000     0.506550000000     0.490700000000     1.39173    
V12      V      0.521870000000     0.462890000000     0.499160000000     1.40384    
V13      V      0.204210000000     0.350030000000     0.815960000000     1.40114    
V14      V      0.240670000000     0.391360000000     0.823960000000     1.38913    
V15      V      0.401360000000     0.214240000000     0.649850000000     1.38255    
V16      V      0.358050000000     0.181580000000     0.643650000000     1.40433    
V17      V      0.029580000000     0.517230000000     0.978140000000     1.39434    
V18      V      0.991450000000     0.477480000000     0.972070000000     1.39264    
V19      V      0.688680000000     0.837340000000     0.322120000000     1.38499    
V20      V      0.646600000000     0.802140000000     0.316950000000     1.39342    
V21      V      0.801030000000     0.620000000000     0.153210000000     1.40016    
V22      V      0.838380000000     0.660610000000     0.151320000000     1.39797    
V23      V      0.507650000000     0.994780000000     0.479770000000     1.38858    
V24      V      0.546280000000     0.033740000000     0.471170000000     1.38952    
V25      V      0.391770000000     0.170530000000     0.143300000000     1.386      
V26      V      0.351610000000     0.169000000000     0.141160000000     1.39544    
V27      V      0.491040000000     0.502760000000     0.000300000000     1.38401    
V28      V      0.533030000000     0.508640000000     0.995530000000     1.39472    
V29      V      0.163650000000     0.838270000000     0.314970000000     1.39453    
V30      V      0.199390000000     0.832330000000     0.306300000000     1.39504    
V31      V      0.023170000000     0.501390000000     0.475230000000     1.39825    
V32      V      0.982200000000     0.497930000000     0.469720000000     1.39313    
V33      V      0.812810000000     0.166740000000     0.637750000000     1.38979    
V34      V      0.850350000000     0.163160000000     0.636790000000     1.39045    
V35      V      0.676690000000     0.835570000000     0.825550000000     1.38921    
V36      V      0.635470000000     0.831040000000     0.817910000000     1.39279    


