data_structure

_audit_creation_method RASPA-1.0
_audit_creation_date 2023-5-25
_audit_author_name 'Poobodin Mano'

_cell_length_a    37.877
_cell_length_b    37.6844
_cell_length_c    37.7837
_cell_angle_alpha 90
_cell_angle_beta  90
_cell_angle_gamma 90
_cell_volume      53931.4

_symmetry_cell_setting          triclinic
_symmetry_space_group_name_Hall 'P 1'
_symmetry_space_group_name_H-M  'P 1'
_symmetry_Int_Tables_number     1

_symmetry_equiv_pos_as_xyz 'x,y,z'

loop_
_atom_site_label
_atom_site_type_symbol
_atom_site_fract_x
_atom_site_fract_y
_atom_site_fract_z
_atom_site_charge
C1       C      0.008070000000     0.064170000000     0.491830000000     0.496663   
C2       C      0.978650000000     0.932830000000     0.489570000000     0.490895   
C3       C      0.928350000000     0.013080000000     0.483480000000     0.491609   
C4       C      0.058440000000     0.984600000000     0.497810000000     0.475965   
C5       C      0.996070000000     0.510450000000     0.562020000000     0.491703   
C6       C      0.996230000000     0.487500000000     0.429770000000     0.473736   
C7       C      0.007900000000     0.433400000000     0.505610000000     0.471509   
C8       C      0.984450000000     0.564270000000     0.484960000000     0.476683   
C9       C      0.561350000000     0.988530000000     0.495770000000     0.472729   
C10      C      0.428020000000     0.979270000000     0.503880000000     0.493878   
C11      C      0.489970000000     0.991790000000     0.432730000000     0.472873   
C12      C      0.498340000000     0.975940000000     0.565650000000     0.478279   
C13      C      0.519400000000     0.005890000000     0.063810000000     0.492124   
C14      C      0.530360000000     0.004450000000     0.930090000000     0.495173   
C15      C      0.524930000000     0.071890000000     0.995930000000     0.500028   
C16      C      0.524820000000     0.937430000000     0.996770000000     0.472873   
C17      C      0.992720000000     0.498980000000     0.060730000000     0.502496   
C18      C      0.978050000000     0.519790000000     0.928990000000     0.474268   
C19      C      0.052340000000     0.510540000000     0.987080000000     0.474209   
C20      C      0.919480000000     0.508290000000     0.003100000000     0.502667   
C21      C      0.477920000000     0.435330000000     0.021090000000     0.474795   
C22      C      0.494440000000     0.567810000000     0.005690000000     0.499254   
C23      C      0.420470000000     0.509350000000     0.006310000000     0.497526   
C24      C      0.552600000000     0.493550000000     0.020300000000     0.474235   
C25      C      0.825740000000     0.478090000000     0.999540000000    -0.0360368  
C26      C      0.645920000000     0.482960000000     0.993640000000    -0.0316849  
C27      C      0.605670000000     0.496500000000     0.058070000000    -0.00100753 
C28      C      0.608230000000     0.468920000000     0.996790000000    -0.00213148 
C29      C      0.721420000000     0.471640000000     0.050870000000    -0.0517519  
C30      C      0.751970000000     0.521250000000     0.005150000000    -0.0546859  
C31      C      0.699780000000     0.491440000000     0.028250000000     0.062486   
C32      C      0.643340000000     0.509920000000     0.052000000000    -0.0323125  
C33      C      0.773660000000     0.501110000000     0.027850000000     0.0663763  
C34      C      0.826800000000     0.538150000000     0.021870000000    -0.111189   
C35      C      0.757930000000     0.476600000000     0.050850000000    -0.0499211  
C36      C      0.866760000000     0.537060000000     0.028180000000     0.328326   
C37      C      0.865190000000     0.472950000000     0.005760000000     0.0145221  
C38      C      0.715280000000     0.517200000000     0.006100000000    -0.0540009  
C39      C      0.325200000000     0.518250000000     0.029810000000    -0.0338585  
C40      C      0.145130000000     0.538850000000     0.999690000000    -0.0323805  
C41      C      0.106590000000     0.481460000000     0.965220000000    -0.00204932 
C42      C      0.107290000000     0.545300000000     0.987470000000    -0.000676734
C43      C      0.217310000000     0.491650000000     0.004860000000    -0.053565   
C44      C      0.256360000000     0.540910000000     0.965790000000    -0.0512803  
C45      C      0.200060000000     0.513500000000     0.980000000000     0.0617726  
C46      C      0.145100000000     0.478630000000     0.977310000000    -0.0319942  
C47      C      0.273720000000     0.519040000000     0.990200000000     0.0664308  
C48      C      0.330530000000     0.499340000000     0.968780000000    -0.113885   
C49      C      0.253950000000     0.493650000000     0.009140000000    -0.0559818  
C50      C      0.369040000000     0.511230000000     0.966620000000     0.330838   
C51      C      0.363890000000     0.529890000000     0.031340000000     0.0127732  
C52      C      0.220030000000     0.537950000000     0.960530000000    -0.050882   
C53      C      0.523860000000     0.655550000000     0.970680000000    -0.0359696  
C54      C      0.556600000000     0.842850000000     0.994390000000    -0.0319468  
C55      C      0.490350000000     0.882540000000     0.992990000000    -0.000403223
C56      C      0.557510000000     0.882330000000     0.984710000000    -0.00210378 
C57      C      0.499330000000     0.771540000000     0.960630000000    -0.0517394  
C58      C      0.532400000000     0.732160000000     0.013780000000    -0.0540695  
C59      C      0.520850000000     0.789000000000     0.985280000000     0.0623581  
C60      C      0.493580000000     0.843710000000     0.003840000000    -0.0321653  
C61      C      0.509180000000     0.715100000000     0.990060000000     0.0656073  
C62      C      0.498290000000     0.663890000000     0.028800000000    -0.112439   
C63      C      0.493280000000     0.735110000000     0.963210000000    -0.0496325  
C64      C      0.480930000000     0.627330000000     0.028410000000     0.328464   
C65      C      0.507380000000     0.618630000000     0.966800000000     0.0147147  
C66      C      0.537310000000     0.768900000000     0.012100000000    -0.0537029  
C67      C      0.544240000000     0.163750000000     0.022940000000    -0.036436   
C68      C      0.477430000000     0.343780000000     0.991820000000    -0.0317538  
C69      C      0.480260000000     0.381810000000     0.058970000000    -0.00106472 
C70      C      0.457110000000     0.378370000000     0.996450000000    -0.00143538 
C71      C      0.523140000000     0.281250000000     0.001230000000    -0.0532205  
C72      C      0.486390000000     0.227120000000     0.035890000000    -0.0545198  
C73      C      0.494180000000     0.289800000000     0.023060000000     0.0627049  
C74      C      0.500180000000     0.346970000000     0.052230000000    -0.0323862  
C75      C      0.512490000000     0.218400000000     0.010740000000     0.066218   
C76      C      0.486810000000     0.161360000000     0.994110000000    -0.113475   
C77      C      0.531630000000     0.245790000000     0.994630000000    -0.0494665  
C78      C      0.495820000000     0.126610000000     0.975550000000     0.330299   
C79      C      0.555800000000     0.128920000000     0.005310000000     0.0177068  
C80      C      0.476920000000     0.262530000000     0.041350000000    -0.0509539  
C81      C      0.499990000000     0.001200000000     0.837770000000    -0.0336289  
C82      C      0.530160000000     0.947310000000     0.653410000000    -0.0321753  
C83      C      0.479120000000     0.997270000000     0.624040000000    -0.00389612 
C84      C      0.511900000000     0.938980000000     0.618040000000    -0.000923728
C85      C      0.544190000000     0.997670000000     0.721630000000    -0.0536539  
C86      C      0.509620000000     0.957960000000     0.773630000000    -0.055098   
C87      C      0.518680000000     0.972360000000     0.711620000000     0.0631088  
C88      C      0.498440000000     0.003250000000     0.658850000000    -0.0297302  
C89      C      0.531660000000     0.986360000000     0.783670000000     0.0655087  
C90      C      0.559750000000     0.977670000000     0.840960000000    -0.111854   
C91      C      0.550020000000     0.005010000000     0.757410000000    -0.0496054  
C92      C      0.566660000000     0.996760000000     0.876240000000     0.329372   
C93      C      0.504230000000     0.020900000000     0.872720000000     0.0133028  
C94      C      0.502700000000     0.951590000000     0.737850000000    -0.05142    
C95      C      0.544340000000     0.009730000000     0.159780000000    -0.0357896  
C96      C      0.505240000000     0.029310000000     0.343530000000    -0.0324246  
C97      C      0.472950000000     0.966550000000     0.374970000000    -0.00207456 
C98      C      0.489630000000     0.031580000000     0.380870000000    -0.000793558
C99      C      0.518830000000     0.985160000000     0.268320000000    -0.0537352  
C100     C      0.479970000000     0.034160000000     0.228790000000    -0.0516736  
C101     C      0.492750000000     0.005870000000     0.285190000000     0.0616739  
C102     C      0.488640000000     0.967410000000     0.337720000000    -0.0317803  
C103     C      0.505000000000     0.012810000000     0.211640000000     0.0653912  
C104     C      0.482590000000     0.994420000000     0.154600000000    -0.114495   
C105     C      0.524100000000     0.987810000000     0.231770000000    -0.0557647  
C106     C      0.480790000000     0.006660000000     0.116070000000     0.330291   
C107     C      0.546500000000     0.021350000000     0.121000000000     0.0143743  
C108     C      0.473650000000     0.030460000000     0.265010000000    -0.0512978  
C109     C      0.027130000000     0.531800000000     0.654040000000    -0.0358641  
C110     C      0.993610000000     0.558280000000     0.840650000000    -0.0325767  
C111     C      0.957800000000     0.497010000000     0.871250000000    -0.00189374 
C112     C      0.977890000000     0.560860000000     0.877980000000    -0.000996649
C113     C      0.007910000000     0.515220000000     0.766330000000    -0.0539864  
C114     C      0.965560000000     0.558840000000     0.724230000000    -0.0515527  
C115     C      0.980700000000     0.535280000000     0.782100000000     0.0615432  
C116     C      0.973960000000     0.497200000000     0.834250000000    -0.0317509  
C117     C      0.991140000000     0.537360000000     0.708100000000     0.0647872  
C118     C      0.967700000000     0.508590000000     0.656310000000    -0.114824   
C119     C      0.012380000000     0.515430000000     0.729580000000    -0.0556837  
C120     C      0.961650000000     0.514720000000     0.616870000000     0.330296   
C121     C      0.025170000000     0.537510000000     0.613870000000     0.0144664  
C122     C      0.960190000000     0.557580000000     0.760770000000    -0.0517569  
C123     C      0.008890000000     0.514120000000     0.157470000000    -0.0355597  
C124     C      0.961790000000     0.470290000000     0.339380000000    -0.0321085  
C125     C      0.029020000000     0.486150000000     0.373460000000    -0.000556595
C126     C      0.967470000000     0.459760000000     0.378060000000    -0.00187633 
C127     C      0.968700000000     0.497560000000     0.266380000000    -0.0534991  
C128     C      0.014550000000     0.457840000000     0.223960000000    -0.0543434  
C129     C      0.992550000000     0.473760000000     0.282360000000     0.0626022  
C130     C      0.020200000000     0.496400000000     0.335330000000    -0.0322385  
C131     C      0.989290000000     0.480100000000     0.207930000000     0.0664681  
C132     C      0.993500000000     0.452610000000     0.148960000000    -0.11193    
C133     C      0.966690000000     0.500040000000     0.229560000000    -0.0492027  
C134     C      0.981980000000     0.458700000000     0.110590000000     0.328262   
C135     C      0.997100000000     0.524470000000     0.120230000000     0.0137169  
C136     C      0.015590000000     0.454290000000     0.260770000000    -0.0515042  
C137     C      0.335550000000     0.948310000000     0.491610000000    -0.0367634  
C138     C      0.148840000000     0.975620000000     0.539130000000    -0.0302531  
C139     C      0.115430000000     0.973190000000     0.469370000000    -0.00129753 
C140     C      0.110880000000     0.989180000000     0.535540000000    -0.00225884 
C141     C      0.222610000000     0.952840000000     0.530990000000    -0.0545237  
C142     C      0.263670000000     0.995520000000     0.486540000000    -0.0535095  
C143     C      0.205910000000     0.976860000000     0.507770000000     0.0643467  
C144     C      0.152240000000     0.958900000000     0.477680000000    -0.0305342  
C145     C      0.280350000000     0.973710000000     0.511790000000     0.0645685  
C146     C      0.334960000000     0.008200000000     0.515060000000    -0.112755   
C147     C      0.259460000000     0.951880000000     0.533350000000    -0.0490023  
C148     C      0.373350000000     0.005670000000     0.527140000000     0.328301   
C149     C      0.374020000000     0.942640000000     0.502980000000     0.0157355  
C150     C      0.226880000000     0.997550000000     0.485190000000    -0.0513918  
C151     C      0.836800000000     0.022610000000     0.512150000000    -0.034806   
C152     C      0.654860000000     0.971260000000     0.470020000000    -0.0325993  
C153     C      0.614750000000     0.021220000000     0.513270000000    -0.00186812 
C154     C      0.618890000000     0.959970000000     0.484830000000    -0.000798781
C155     C      0.721250000000     0.027860000000     0.464260000000    -0.0531657  
C156     C      0.769540000000     0.984690000000     0.500050000000    -0.0553002  
C157     C      0.708770000000     0.001350000000     0.487450000000     0.0620813  
C158     C      0.651070000000     0.029140000000     0.497610000000    -0.0317479  
C159     C      0.781930000000     0.013410000000     0.479640000000     0.0654242  
C160     C      0.838140000000     0.000790000000     0.451420000000    -0.111999   
C161     C      0.757490000000     0.034160000000     0.461020000000    -0.0507098  
C162     C      0.875190000000     0.016280000000     0.445490000000     0.329704   
C163     C      0.873670000000     0.038540000000     0.508590000000     0.0153679  
C164     C      0.733290000000     0.979280000000     0.504400000000    -0.0514605  
C165     C      0.961360000000     0.840880000000     0.521680000000    -0.0355717  
C166     C      0.943740000000     0.652550000000     0.495990000000    -0.0323785  
C167     C      0.005640000000     0.621730000000     0.461890000000    -0.00109484 
C168     C      0.942290000000     0.614240000000     0.482380000000    -0.000280255
C169     C      0.984700000000     0.729450000000     0.505180000000    -0.0538103  
C170     C      0.936880000000     0.766890000000     0.463050000000    -0.0510843  
C171     C      0.964550000000     0.711130000000     0.479660000000     0.0623792  
C172     C      0.004250000000     0.659730000000     0.475870000000    -0.0316116  
C173     C      0.958110000000     0.785520000000     0.487120000000     0.0650817  
C174     C      0.980610000000     0.839100000000     0.460560000000    -0.114202   
C175     C      0.982310000000     0.766380000000     0.508100000000    -0.0551312  
C176     C      0.971430000000     0.878130000000     0.454700000000     0.329739   
C177     C      0.952570000000     0.880540000000     0.519300000000     0.0144689  
C178     C      0.940290000000     0.730200000000     0.459130000000    -0.0513657  
C179     C      0.006160000000     0.158160000000     0.520260000000    -0.0368594  
C180     C      0.054260000000     0.344410000000     0.503560000000    -0.0320835  
C181     C      0.983290000000     0.373810000000     0.512550000000    -8.51231e-05
C182     C      0.048550000000     0.383870000000     0.495510000000    -0.00139966 
C183     C      0.048490000000     0.267670000000     0.518520000000    -0.0542572  
C184     C      0.004970000000     0.229930000000     0.471990000000    -0.054071   
C185     C      0.025500000000     0.286290000000     0.495840000000     0.0624901  
C186     C      0.993900000000     0.335790000000     0.521460000000    -0.0326214  
C187     C      0.029180000000     0.211360000000     0.493430000000     0.065164   
C188     C      0.026780000000     0.155600000000     0.459590000000    -0.111753   
C189     C      0.050700000000     0.230660000000     0.516730000000    -0.049881   
C190     C      0.035450000000     0.115970000000     0.462520000000     0.328231   
C191     C      0.014910000000     0.119070000000     0.526520000000     0.0167882  
C192     C      0.003780000000     0.266980000000     0.472770000000    -0.0510998  
F1       F      0.873070000000     0.533730000000     0.064130000000    -0.425777   
F2       F      0.370740000000     0.543860000000     0.949840000000    -0.429242   
F3       F      0.445290000000     0.631230000000     0.021170000000    -0.431702   
F4       F      0.506350000000     0.133890000000     0.941200000000    -0.433896   
F5       F      0.585140000000     0.027800000000     0.869800000000    -0.430508   
F6       F      0.465350000000     0.039940000000     0.114660000000    -0.438443   
F7       F      0.942080000000     0.545430000000     0.612300000000    -0.439453   
F8       F      0.945490000000     0.456980000000     0.108760000000    -0.425954   
F9       F      0.374150000000     0.999170000000     0.563200000000    -0.441577   
F10      F      0.872220000000     0.048800000000     0.428690000000    -0.436141   
F11      F      0.938900000000     0.880470000000     0.438120000000    -0.437702   
F12      F      0.071500000000     0.112000000000     0.467090000000    -0.439021   
H1       H      0.699300000000     0.533610000000     0.988960000000     0.0414822  
H2       H      0.812760000000     0.451650000000     0.001540000000     0.0402439  
H3       H      0.814640000000     0.556930000000     0.041060000000     0.084743   
H4       H      0.606800000000     0.471880000000     0.074250000000     0.037792   
H5       H      0.868990000000     0.457250000000     0.030400000000     0.0667728  
H6       H      0.661240000000     0.464700000000     0.976310000000     0.0364116  
H7       H      0.656710000000     0.511890000000     0.078170000000     0.0377696  
H8       H      0.595470000000     0.470350000000     0.970340000000     0.0408963  
H9       H      0.878050000000     0.562890000000     0.019520000000    -0.0060548  
H10      H      0.763130000000     0.539960000000     0.986580000000     0.0419455  
H11      H      0.876090000000     0.457110000000     0.983440000000     0.0374909  
H12      H      0.709890000000     0.452070000000     0.068400000000     0.0485571  
H13      H      0.821050000000     0.488540000000     0.972350000000     0.0378183  
H14      H      0.590950000000     0.516850000000     0.073450000000     0.039185   
H15      H      0.644960000000     0.509540000000     0.980830000000     0.0381025  
H16      H      0.642650000000     0.536900000000     0.039970000000     0.0398046  
H17      H      0.774220000000     0.460600000000     0.068180000000     0.0576841  
H18      H      0.821960000000     0.548430000000     0.994670000000     0.0519381  
H19      H      0.609400000000     0.440450000000     0.004460000000     0.0361359  
H20      H      0.207170000000     0.555280000000     0.941640000000     0.0483937  
H21      H      0.309690000000     0.534900000000     0.048530000000     0.0412354  
H22      H      0.318820000000     0.501160000000     0.941800000000     0.0816722  
H23      H      0.106190000000     0.485620000000     0.936080000000     0.0362378  
H24      H      0.364980000000     0.559290000000     0.029090000000     0.0683798  
H25      H      0.159200000000     0.564800000000     0.999530000000     0.0372077  
H26      H      0.159090000000     0.459500000000     0.959800000000     0.036403   
H27      H      0.094040000000     0.562530000000     0.007350000000     0.0396832  
H28      H      0.383560000000     0.491650000000     0.950080000000    -0.00805766 
H29      H      0.271190000000     0.560220000000     0.950640000000     0.0637111  
H30      H      0.374760000000     0.522720000000     0.057720000000     0.0415759  
H31      H      0.202780000000     0.472950000000     0.020930000000     0.0412347  
H32      H      0.323560000000     0.490120000000     0.038630000000     0.0362489  
H33      H      0.093170000000     0.455790000000     0.970610000000     0.0402342  
H34      H      0.145250000000     0.528530000000     0.027340000000     0.0398497  
H35      H      0.145440000000     0.468020000000     0.004810000000     0.0377277  
H36      H      0.266480000000     0.475710000000     0.027590000000     0.0418069  
H37      H      0.329080000000     0.471100000000     0.977410000000     0.0545554  
H38      H      0.107860000000     0.559960000000     0.961940000000     0.0380424  
H39      H      0.553700000000     0.781330000000     0.031960000000     0.0416101  
H40      H      0.526910000000     0.667150000000     0.943750000000     0.0392496  
H41      H      0.482160000000     0.681950000000     0.045610000000     0.083586   
H42      H      0.480100000000     0.883890000000     0.965440000000     0.0395033  
H43      H      0.483600000000     0.620690000000     0.949660000000     0.0619758  
H44      H      0.578610000000     0.829160000000     0.980440000000     0.0363446  
H45      H      0.468010000000     0.830410000000     0.997800000000     0.0386768  
H46      H      0.580930000000     0.894650000000     0.997520000000     0.0410016  
H47      H      0.483340000000     0.615880000000     0.055420000000    -0.00608918 
H48      H      0.545870000000     0.717530000000     0.034360000000     0.0418299  
H49      H      0.526610000000     0.600980000000     0.953170000000     0.0363051  
H50      H      0.486180000000     0.786560000000     0.940050000000     0.0480014  
H51      H      0.550610000000     0.653390000000     0.982770000000     0.0377788  
H52      H      0.470560000000     0.895530000000     0.010490000000     0.0403298  
H53      H      0.560970000000     0.840330000000     0.023420000000     0.0374653  
H54      H      0.498200000000     0.841640000000     0.032900000000     0.0407095  
H55      H      0.475680000000     0.722420000000     0.944500000000     0.0554291  
H56      H      0.524950000000     0.661340000000     0.040960000000     0.0523048  
H57      H      0.561280000000     0.884770000000     0.955620000000     0.0369909  
H58      H      0.455350000000     0.268730000000     0.059120000000     0.0473163  
H59      H      0.568120000000     0.180380000000     0.027350000000     0.0408205  
H60      H      0.467810000000     0.176400000000     0.977360000000     0.0848258  
H61      H      0.454840000000     0.375610000000     0.072330000000     0.0375325  
H62      H      0.572040000000     0.135300000000     0.981630000000     0.0630554  
H63      H      0.462910000000     0.326740000000     0.972660000000     0.0395389  
H64      H      0.502360000000     0.332370000000     0.077750000000     0.0365414  
H65      H      0.456270000000     0.392710000000     0.970750000000     0.0414213  
H66      H      0.471440000000     0.110260000000     0.974080000000    -0.00158384 
H67      H      0.472170000000     0.206710000000     0.050070000000     0.046468   
H68      H      0.572620000000     0.113810000000     0.024160000000     0.0388093  
H69      H      0.538170000000     0.301730000000     0.988000000000     0.0438423  
H70      H      0.532010000000     0.158070000000     0.049150000000     0.0442887  
H71      H      0.496250000000     0.398700000000     0.077030000000     0.0384451  
H72      H      0.503800000000     0.350190000000     0.980530000000     0.0408105  
H73      H      0.527350000000     0.352830000000     0.042560000000     0.0399928  
H74      H      0.552530000000     0.239560000000     0.976080000000     0.0554353  
H75      H      0.473730000000     0.154950000000     0.019700000000     0.0606447  
H76      H      0.429440000000     0.371790000000     0.003790000000     0.0359659  
H77      H      0.483780000000     0.931320000000     0.730560000000     0.0479804  
H78      H      0.481020000000     0.016150000000     0.820920000000     0.0435225  
H79      H      0.585230000000     0.975110000000     0.826510000000     0.0813433  
H80      H      0.452560000000     0.986190000000     0.629970000000     0.0538954  
H81      H      0.510820000000     0.049060000000     0.866870000000     0.0700484  
H82      H      0.536310000000     0.921790000000     0.666890000000     0.0368106  
H83      H      0.481230000000     0.019400000000     0.676490000000     0.0418938  
H84      H      0.530940000000     0.925110000000     0.600390000000     0.0379475  
H85      H      0.583400000000     0.979310000000     0.893050000000    -0.00853966 
H86      H      0.496260000000     0.941960000000     0.793260000000     0.0430698  
H87      H      0.478500000000     0.020760000000     0.886880000000     0.0453447  
H88      H      0.558150000000     0.013120000000     0.701980000000     0.0447761  
H89      H      0.488680000000     0.974530000000     0.843410000000     0.0384993  
H90      H      0.475080000000     0.023320000000     0.610850000000     0.0515563  
H91      H      0.555450000000     0.961540000000     0.648440000000     0.0397664  
H92      H      0.522950000000     0.018570000000     0.653310000000     0.0404402  
H93      H      0.567900000000     0.026200000000     0.764710000000     0.0613085  
H94      H      0.549410000000     0.950480000000     0.846100000000     0.0540687  
H95      H      0.489380000000     0.920730000000     0.623090000000     0.0420802  
H96      H      0.453770000000     0.046880000000     0.277510000000     0.0478108  
H97      H      0.564070000000     0.025120000000     0.175290000000     0.0392845  
H98      H      0.455850000000     0.997500000000     0.166460000000     0.0811644  
H99      H      0.443790000000     0.969200000000     0.372810000000     0.0357661  
H100     H      0.546740000000     0.050850000000     0.120010000000     0.0501983  
H101     H      0.503490000000     0.056120000000     0.331260000000     0.0367142  
H102     H      0.474290000000     0.947850000000     0.320980000000     0.0359841  
H103     H      0.506540000000     0.049410000000     0.397090000000     0.0390195  
H104     H      0.463490000000     0.987890000000     0.101360000000    -0.00883409 
H105     H      0.464770000000     0.053290000000     0.213780000000     0.0612163  
H106     H      0.572060000000     0.012070000000     0.109880000000     0.0370108  
H107     H      0.534710000000     0.966400000000     0.282960000000     0.0412035  
H108     H      0.551380000000     0.981090000000     0.161290000000     0.0364997  
H109     H      0.478490000000     0.940170000000     0.386900000000     0.0398803  
H110     H      0.533640000000     0.021760000000     0.344970000000     0.0401793  
H111     H      0.516840000000     0.959280000000     0.339460000000     0.0379397  
H112     H      0.543240000000     0.970390000000     0.219610000000     0.0416808  
H113     H      0.489730000000     0.965760000000     0.155830000000     0.0549952  
H114     H      0.462920000000     0.043720000000     0.379210000000     0.0382514  
H115     H      0.939460000000     0.573520000000     0.772470000000     0.0477875  
H116     H      0.045620000000     0.551660000000     0.665500000000     0.0386707  
H117     H      0.941650000000     0.510090000000     0.669920000000     0.0809568  
H118     H      0.928950000000     0.501870000000     0.868760000000     0.035716   
H119     H      0.021710000000     0.566340000000     0.608640000000     0.0499299  
H120     H      0.993010000000     0.585200000000     0.828530000000     0.0365526  
H121     H      0.958750000000     0.478570000000     0.817220000000     0.036266   
H122     H      0.995420000000     0.577790000000     0.894500000000     0.0387277  
H123     H      0.945800000000     0.492100000000     0.606590000000    -0.00892739 
H124     H      0.948730000000     0.575580000000     0.708160000000     0.0607536  
H125     H      0.050820000000     0.529540000000     0.601960000000     0.0353588  
H126     H      0.024920000000     0.498430000000     0.782060000000     0.0411921  
H127     H      0.038000000000     0.504820000000     0.659030000000     0.0359731  
H128     H      0.961220000000     0.470160000000     0.882920000000     0.0403551  
H129     H      0.021650000000     0.549490000000     0.842190000000     0.0399189  
H130     H      0.001640000000     0.487490000000     0.836220000000     0.0384381  
H131     H      0.032030000000     0.498050000000     0.718200000000     0.0413342  
H132     H      0.978610000000     0.481490000000     0.660770000000     0.0545311  
H133     H      0.951700000000     0.574070000000     0.876290000000     0.0379701  
H134     H      0.034830000000     0.436670000000     0.272650000000     0.0461137  
H135     H      0.005840000000     0.537790000000     0.174860000000     0.0391616  
H136     H      0.978440000000     0.429770000000     0.159950000000     0.0863578  
H137     H      0.044810000000     0.461270000000     0.373220000000     0.0373149  
H138     H      0.971050000000     0.538010000000     0.121970000000     0.0640138  
H139     H      0.943230000000     0.451020000000     0.327030000000     0.039176   
H140     H      0.045270000000     0.496970000000     0.319950000000     0.0352774  
H141     H      0.942190000000     0.463250000000     0.392600000000     0.0412662  
H142     H      0.992670000000     0.436620000000     0.094240000000    -0.00641219 
H143     H      0.033330000000     0.442990000000     0.208310000000     0.0426419  
H144     H      0.016270000000     0.543990000000     0.109310000000     0.0359566  
H145     H      0.951490000000     0.514180000000     0.282060000000     0.0443264  
H146     H      0.037340000000     0.506570000000     0.157360000000     0.0372302  
H147     H      0.045680000000     0.507450000000     0.385150000000     0.0382539  
H148     H      0.949390000000     0.497050000000     0.338900000000     0.0395426  
H149     H      0.008460000000     0.523510000000     0.334640000000     0.0397371  
H150     H      0.947790000000     0.518050000000     0.217720000000     0.0566908  
H151     H      0.022050000000     0.445560000000     0.149110000000     0.052358   
H152     H      0.974300000000     0.431080000000     0.379060000000     0.0368852  
H153     H      0.214530000000     0.015410000000     0.466440000000     0.0511841  
H154     H      0.321980000000     0.922110000000     0.491930000000     0.0380357  
H155     H      0.320710000000     0.026960000000     0.532790000000     0.0842072  
H156     H      0.118180000000     0.998710000000     0.454810000000     0.0518767  
H157     H      0.374350000000     0.927330000000     0.528140000000     0.0542714  
H158     H      0.162010000000     0.990580000000     0.560830000000     0.0397566  
H159     H      0.168290000000     0.960280000000     0.453020000000     0.0371216  
H160     H      0.095160000000     0.979090000000     0.558280000000     0.0406434  
H161     H      0.386010000000     0.031880000000     0.522510000000    -0.00618482 
H162     H      0.278830000000     0.011640000000     0.468410000000     0.0437099  
H163     H      0.387600000000     0.926430000000     0.482480000000     0.0336966  
H164     H      0.207470000000     0.935440000000     0.547920000000     0.0432046  
H165     H      0.334650000000     0.958800000000     0.464060000000     0.0382573  
H166     H      0.101850000000     0.954240000000     0.451350000000     0.0401844  
H167     H      0.148040000000     0.947060000000     0.546670000000     0.0366545  
H168     H      0.150670000000     0.930540000000     0.485850000000     0.0384507  
H169     H      0.271860000000     0.934210000000     0.552230000000     0.0528127  
H170     H      0.334630000000     0.019270000000     0.487750000000     0.0539427  
H171     H      0.111120000000     0.018620000000     0.537720000000     0.0479373  
H172     H      0.724200000000     0.958070000000     0.521450000000     0.0461143  
H173     H      0.821490000000     0.038800000000     0.531430000000     0.0396619  
H174     H      0.823860000000     0.000730000000     0.425670000000     0.0844924  
H175     H      0.618030000000     0.014620000000     0.541770000000     0.0364376  
H176     H      0.870880000000     0.067220000000     0.502240000000     0.0558534  
H177     H      0.671390000000     0.947050000000     0.466810000000     0.0367491  
H178     H      0.664840000000     0.048370000000     0.515210000000     0.0372323  
H179     H      0.605040000000     0.943750000000     0.464530000000     0.0381182  
H180     H      0.890010000000     0.998030000000     0.427760000000     0.0020054  
H181     H      0.787650000000     0.967110000000     0.513530000000     0.0441491  
H182     H      0.887430000000     0.036620000000     0.534500000000     0.0375034  
H183     H      0.703220000000     0.044480000000     0.449530000000     0.0438034  
H184     H      0.839530000000     0.995240000000     0.522860000000     0.0397594  
H185     H      0.598510000000     0.045750000000     0.511800000000     0.0409109  
H186     H      0.651470000000     0.983640000000     0.443460000000     0.0401193  
H187     H      0.647330000000     0.041740000000     0.471220000000     0.0385629  
H188     H      0.766610000000     0.055660000000     0.444340000000     0.0592294  
H189     H      0.840350000000     0.972830000000     0.460720000000     0.0624826  
H190     H      0.623230000000     0.942850000000     0.508400000000     0.0378575  
H191     H      0.924250000000     0.716550000000     0.439700000000     0.0485333  
H192     H      0.943660000000     0.828390000000     0.541620000000     0.0394358  
H193     H      0.978040000000     0.825060000000     0.434750000000     0.0810607  
H194     H      0.000950000000     0.622350000000     0.432840000000     0.0356443  
H195     H      0.923510000000     0.883460000000     0.516310000000     0.0522108  
H196     H      0.916590000000     0.663780000000     0.494830000000     0.039878   
H197     H      0.022260000000     0.676460000000     0.459640000000     0.0361322  
H198     H      0.925940000000     0.598240000000     0.500900000000     0.048928   
H199     H      0.991620000000     0.889570000000     0.436620000000    -0.0067554  
H200     H      0.918400000000     0.781120000000     0.446420000000     0.0611412  
H201     H      0.960080000000     0.893440000000     0.544660000000     0.0362285  
H202     H      0.003060000000     0.715600000000     0.522180000000     0.0427228  
H203     H      0.989120000000     0.838240000000     0.530960000000     0.0365265  
H204     H      0.032670000000     0.611070000000     0.466160000000     0.0401459  
H205     H      0.952590000000     0.652880000000     0.524110000000     0.0475888  
H206     H      0.013920000000     0.659680000000     0.503690000000     0.0402294  
H207     H      0.999620000000     0.779670000000     0.526570000000     0.0416632  
H208     H      0.008560000000     0.836600000000     0.469430000000     0.0549438  
H209     H      0.929070000000     0.614050000000     0.456100000000     0.0390764  
H210     H      0.985240000000     0.280780000000     0.455830000000     0.0469759  
H211     H      0.008500000000     0.172310000000     0.546030000000     0.0384339  
H212     H      0.044810000000     0.167930000000     0.439860000000     0.0848309  
H213     H      0.967510000000     0.373570000000     0.487710000000     0.0401833  
H214     H      0.040830000000     0.117260000000     0.540230000000     0.0540361  
H215     H      0.075930000000     0.334340000000     0.486390000000     0.0376397  
H216     H      0.970030000000     0.318720000000     0.518820000000     0.0361048  
H217     H      0.070480000000     0.399340000000     0.507590000000     0.0386417  
H218     H      0.028200000000     0.103040000000     0.437090000000    -0.00152532 
H219     H      0.986910000000     0.216130000000     0.454660000000     0.0452351  
H220     H      0.994540000000     0.107750000000     0.544470000000     0.0364449  
H221     H      0.064800000000     0.281420000000     0.537570000000     0.0429247  
H222     H      0.978390000000     0.160830000000     0.510880000000     0.0417444  
H223     H      0.965780000000     0.384050000000     0.533880000000     0.0377515  
H224     H      0.062760000000     0.341710000000     0.531650000000     0.0367917  
H225     H      0.003090000000     0.334070000000     0.549420000000     0.0389803  
H226     H      0.068740000000     0.216800000000     0.534150000000     0.0524001  
H227     H      0.999220000000     0.158130000000     0.449700000000     0.0577636  
H228     H      0.050460000000     0.387850000000     0.466400000000     0.0371386  
N1       N      0.883950000000     0.507130000000     0.009550000000    -0.204822   
N2       N      0.811770000000     0.502440000000     0.026380000000    -0.0868717  
N3       N      0.662200000000     0.484920000000     0.028970000000    -0.112441   
N4       N      0.588130000000     0.488360000000     0.024140000000    -0.181162   
N5       N      0.384940000000     0.514410000000     0.002200000000    -0.204722   
N6       N      0.311590000000     0.522450000000     0.993570000000    -0.086199   
N7       N      0.162150000000     0.513700000000     0.975460000000    -0.112148   
N8       N      0.088140000000     0.511550000000     0.982230000000    -0.180992   
N9       N      0.496740000000     0.603780000000     0.001380000000    -0.205952   
N10      N      0.500650000000     0.677760000000     0.992490000000    -0.0868732  
N11      N      0.522520000000     0.827340000000     0.983900000000    -0.111987   
N12      N      0.524630000000     0.901190000000     0.994490000000    -0.180559   
N13      N      0.524800000000     0.108090000000     0.994050000000    -0.204791   
N14      N      0.519180000000     0.182290000000     0.999720000000    -0.0862142  
N15      N      0.480720000000     0.325550000000     0.026200000000    -0.112369   
N16      N      0.472820000000     0.399700000000     0.025100000000    -0.181559   
N17      N      0.533080000000     0.005500000000     0.894040000000    -0.204857   
N18      N      0.534450000000     0.998340000000     0.819910000000    -0.0869375  
N19      N      0.506520000000     0.968870000000     0.675530000000    -0.111755   
N20      N      0.498340000000     0.971730000000     0.601550000000    -0.178523   
N21      N      0.516230000000     0.008490000000     0.099810000000    -0.207556   
N22      N      0.508570000000     0.016120000000     0.173610000000    -0.0871892  
N23      N      0.485180000000     0.003300000000     0.322690000000    -0.112059   
N24      N      0.486420000000     0.996040000000     0.396950000000    -0.18091    
N25      N      0.995330000000     0.518220000000     0.597430000000    -0.207611   
N26      N      0.991830000000     0.535840000000     0.669830000000    -0.0871613  
N27      N      0.972610000000     0.533330000000     0.819470000000    -0.112364   
N28      N      0.973170000000     0.525260000000     0.893550000000    -0.181203   
N29      N      0.993640000000     0.493450000000     0.096510000000    -0.205232   
N30      N      0.986820000000     0.484750000000     0.170000000000    -0.0868291  
N31      N      0.995750000000     0.470180000000     0.320350000000    -0.112207   
N32      N      0.996600000000     0.480120000000     0.394320000000    -0.181076   
N33      N      0.392300000000     0.976770000000     0.508710000000    -0.207811   
N34      N      0.318290000000     0.972920000000     0.516280000000    -0.0874992  
N35      N      0.167930000000     0.980730000000     0.505630000000    -0.109712   
N36      N      0.094030000000     0.979450000000     0.501540000000    -0.177421   
N37      N      0.893370000000     0.021200000000     0.479660000000    -0.205733   
N38      N      0.818980000000     0.022480000000     0.477450000000    -0.0875738  
N39      N      0.671620000000     0.996130000000     0.494740000000    -0.112245   
N40      N      0.597410000000     0.990900000000     0.495520000000    -0.180682   
N41      N      0.969900000000     0.897580000000     0.488610000000    -0.207352   
N42      N      0.956440000000     0.823910000000     0.486890000000    -0.086946   
N43      N      0.967860000000     0.673330000000     0.473680000000    -0.112138   
N44      N      0.978140000000     0.599420000000     0.478440000000    -0.179365   
N45      N      0.017070000000     0.099350000000     0.492800000000    -0.206124   
N46      N      0.030950000000     0.172980000000     0.494300000000    -0.0877444  
N47      N      0.021570000000     0.324490000000     0.496840000000    -0.111382   
N48      N      0.013950000000     0.397630000000     0.507600000000    -0.180104   
O1       O      0.007680000000     0.047400000000     0.462180000000    -0.546021   
O2       O      0.985980000000     0.949020000000     0.460590000000    -0.548051   
O3       O      0.947740000000     0.008600000000     0.455910000000    -0.540973   
O4       O      0.045120000000     0.987190000000     0.466660000000    -0.55321    
O5       O      0.038880000000     0.988360000000     0.525390000000    -0.553281   
O6       O      0.941580000000     0.010210000000     0.514630000000    -0.559341   
O7       O      0.978860000000     0.949640000000     0.519190000000    -0.558167   
O8       O      0.000770000000     0.047980000000     0.520810000000    -0.558198   
O9       O      0.967250000000     0.501920000000     0.546280000000    -0.546094   
O10      O      0.967270000000     0.485030000000     0.447330000000    -0.557539   
O11      O      0.975980000000     0.444900000000     0.505040000000    -0.558575   
O12      O      0.958410000000     0.542770000000     0.489020000000    -0.550215   
O13      O      0.016380000000     0.552960000000     0.486500000000    -0.55562    
O14      O      0.033990000000     0.455020000000     0.502390000000    -0.554415   
O15      O      0.025100000000     0.496100000000     0.445380000000    -0.557297   
O16      O      0.025140000000     0.512750000000     0.544580000000    -0.556417   
O17      O      0.546350000000     0.958300000000     0.491010000000    -0.553406   
O18      O      0.446530000000     0.950970000000     0.499650000000    -0.552986   
O19      O      0.491440000000     0.960410000000     0.445890000000    -0.556078   
O20      O      0.501410000000     0.948740000000     0.545330000000    -0.55       
O21      O      0.494130000000     0.007070000000     0.552570000000    -0.55508    
O22      O      0.491130000000     0.019190000000     0.452980000000    -0.557881   
O23      O      0.442940000000     0.009850000000     0.504950000000    -0.555295   
O24      O      0.542770000000     0.016390000000     0.501800000000    -0.55958    
O25      O      0.550180000000     0.005510000000     0.049490000000    -0.558238   
O26      O      0.558430000000     0.003890000000     0.949200000000    -0.53858    
O27      O      0.554320000000     0.055140000000     0.999250000000    -0.546756   
O28      O      0.554260000000     0.954200000000     0.999360000000    -0.554633   
O29      O      0.495500000000     0.954470000000     0.994960000000    -0.562343   
O30      O      0.495650000000     0.054930000000     0.993570000000    -0.554132   
O31      O      0.499690000000     0.004780000000     0.944530000000    -0.561209   
O32      O      0.491480000000     0.005060000000     0.044520000000    -0.545853   
O33      O      0.991040000000     0.472360000000     0.039520000000    -0.545573   
O34      O      0.979480000000     0.487960000000     0.941000000000    -0.560663   
O35      O      0.035550000000     0.481040000000     0.984070000000    -0.557399   
O36      O      0.936030000000     0.479440000000     0.995880000000    -0.553546   
O37      O      0.936250000000     0.537850000000     0.005570000000    -0.546089   
O38      O      0.035710000000     0.539390000000     0.994030000000    -0.561514   
O39      O      0.980680000000     0.546460000000     0.950050000000    -0.557383   
O40      O      0.991820000000     0.530860000000     0.048720000000    -0.553202   
O41      O      0.479500000000     0.455450000000     0.048500000000    -0.5573     
O42      O      0.488360000000     0.555010000000     0.036570000000    -0.552119   
O43      O      0.434240000000     0.509890000000     0.037410000000    -0.553352   
O44      O      0.533680000000     0.501260000000     0.047460000000    -0.55773    
O45      O      0.538320000000     0.490050000000     0.989670000000    -0.560324   
O46      O      0.439930000000     0.504750000000     0.978850000000    -0.543675   
O47      O      0.497130000000     0.547200000000     0.978690000000    -0.55156    
O48      O      0.480830000000     0.448420000000     0.989860000000    -0.5598     
V1       V      0.996830000000     0.998090000000     0.458990000000     1.42008    
V2       V      0.989800000000     0.998930000000     0.522350000000     1.39191    
V3       V      0.964920000000     0.493300000000     0.496970000000     1.41021    
V4       V      0.027490000000     0.504580000000     0.494800000000     1.38778    
V5       V      0.496620000000     0.952220000000     0.495180000000     1.38212    
V6       V      0.492670000000     0.015480000000     0.503210000000     1.41291    
V7       V      0.556670000000     0.004640000000     0.999570000000     1.39263    
V8       V      0.493270000000     0.004740000000     0.994290000000     1.42772    
V9       V      0.985660000000     0.477870000000     0.989760000000     1.40696    
V10      V      0.986100000000     0.540990000000     0.999870000000     1.40656    
V11      V      0.483750000000     0.505640000000     0.044850000000     1.39929    
V12      V      0.489340000000     0.497360000000     0.981930000000     1.41133    


