data_structure

_audit_creation_method RASPA-1.0
_audit_creation_date 2023-6-5
_audit_author_name 'Poobodin Mano'

_cell_length_a    60.7191
_cell_length_b    61.0207
_cell_length_c    37.1349
_cell_angle_alpha 89.951
_cell_angle_beta  90.049
_cell_angle_gamma 119.913
_cell_volume      119260

_symmetry_cell_setting          triclinic
_symmetry_space_group_name_Hall 'P 1'
_symmetry_space_group_name_H-M  'P 1'
_symmetry_Int_Tables_number     1

_symmetry_equiv_pos_as_xyz 'x,y,z'

loop_
_atom_site_label
_atom_site_type_symbol
_atom_site_fract_x
_atom_site_fract_y
_atom_site_fract_z
_atom_site_charge
C1       C      0.877660000000     0.653680000000     0.554510000000     0.500563   
C2       C      0.866940000000     0.655120000000     0.689790000000     0.474627   
C3       C      0.824850000000     0.636010000000     0.613320000000     0.497757   
C4       C      0.919810000000     0.672940000000     0.631080000000     0.495844   
C5       C      0.195700000000     0.839230000000     0.752120000000     0.471532   
C6       C      0.186620000000     0.825360000000     0.887400000000     0.496123   
C7       C      0.237180000000     0.866090000000     0.829310000000     0.472084   
C8       C      0.145130000000     0.798400000000     0.810810000000     0.47646    
C9       C      0.554610000000     0.056880000000     0.887750000000     0.49427    
C10      C      0.515930000000     0.030510000000     0.012120000000     0.478303   
C11      C      0.491250000000     0.021690000000     0.921990000000     0.494741   
C12      C      0.579360000000     0.065350000000     0.977770000000     0.49908    
C13      C      0.166600000000     0.353140000000     0.453170000000     0.497196   
C14      C      0.198100000000     0.362470000000     0.324460000000     0.473912   
C15      C      0.227670000000     0.381860000000     0.411270000000     0.495073   
C16      C      0.136610000000     0.333790000000     0.366270000000     0.495897   
C17      C      0.836950000000     0.172610000000     0.258480000000     0.474644   
C18      C      0.859550000000     0.195690000000     0.127240000000     0.493728   
C19      C      0.801800000000     0.160380000000     0.176710000000     0.474038   
C20      C      0.895450000000     0.208460000000     0.209200000000     0.474598   
C21      C      0.535330000000     0.526580000000     0.406970000000     0.472461   
C22      C      0.536880000000     0.516640000000     0.542480000000     0.493479   
C23      C      0.583920000000     0.539630000000     0.473020000000     0.475269   
C24      C      0.488460000000     0.503530000000     0.475580000000     0.472657   
C25      C      0.220460000000     0.346680000000     0.952180000000     0.494455   
C26      C      0.210300000000     0.349590000000     0.816830000000     0.472034   
C27      C      0.241740000000     0.326860000000     0.874510000000     0.475188   
C28      C      0.189280000000     0.369420000000     0.894950000000     0.472986   
C29      C      0.393390000000     0.190530000000     0.714460000000     0.501934   
C30      C      0.374450000000     0.211050000000     0.589870000000     0.500379   
C31      C      0.360330000000     0.221020000000     0.680600000000     0.498637   
C32      C      0.407140000000     0.180220000000     0.623880000000     0.496268   
C33      C      0.025840000000     0.499020000000     0.061670000000     0.49438    
C34      C      0.020170000000     0.518060000000     0.930100000000     0.49259    
C35      C      0.997450000000     0.529280000000     0.014440000000     0.475039   
C36      C      0.048740000000     0.488010000000     0.977830000000     0.496603   
C37      C      0.650110000000     0.851080000000     0.172510000000     0.497151   
C38      C      0.659040000000     0.820030000000     0.295510000000     0.475897   
C39      C      0.668030000000     0.806970000000     0.203710000000     0.475144   
C40      C      0.640970000000     0.864260000000     0.264250000000     0.496507   
C41      C      0.819250000000     0.657960000000     0.055900000000     0.495373   
C42      C      0.825580000000     0.655210000000     0.191830000000     0.477076   
C43      C      0.793290000000     0.675140000000     0.131230000000     0.497454   
C44      C      0.851210000000     0.638090000000     0.116110000000     0.496111   
C45      C      0.534970000000     0.029340000000     0.381950000000     0.493991   
C46      C      0.548530000000     0.041140000000     0.516810000000     0.474238   
C47      C      0.520040000000     0.061870000000     0.450180000000     0.474915   
C48      C      0.563350000000     0.009130000000     0.448800000000     0.475396   
C49      C      0.375520000000     0.190960000000     0.220130000000     0.476223   
C50      C      0.380560000000     0.178450000000     0.086170000000     0.476285   
C51      C      0.402230000000     0.232110000000     0.142700000000     0.494314   
C52      C      0.354000000000     0.137290000000     0.163480000000     0.494888   
C53      C      0.529670000000     0.500120000000     0.914070000000     0.475764   
C54      C      0.531190000000     0.538920000000     0.035420000000     0.499263   
C55      C      0.545590000000     0.561910000000     0.943840000000     0.494712   
C56      C      0.515290000000     0.477490000000     0.005900000000     0.474825   
C57      C      0.190930000000     0.824700000000     0.260450000000     0.475078   
C58      C      0.217070000000     0.866760000000     0.383080000000     0.496426   
C59      C      0.226450000000     0.888500000000     0.290620000000     0.474518   
C60      C      0.181580000000     0.802930000000     0.352380000000     0.49697    
C61      C      0.047680000000     0.527090000000     0.558360000000     0.472055   
C62      C      0.032890000000     0.488890000000     0.433430000000     0.47498    
C63      C      0.061690000000     0.551880000000     0.467480000000     0.473493   
C64      C      0.018990000000     0.464650000000     0.524200000000     0.473344   
C65      C      0.858670000000     0.196540000000     0.755680000000     0.477535   
C66      C      0.830530000000     0.161290000000     0.629960000000     0.499109   
C67      C      0.814630000000     0.135220000000     0.719500000000     0.500245   
C68      C      0.873880000000     0.221710000000     0.666150000000     0.494518   
C69      C      0.658160000000     0.823820000000     0.668080000000     0.493034   
C70      C      0.652060000000     0.829790000000     0.803660000000     0.472903   
C71      C      0.635320000000     0.779340000000     0.741530000000     0.475693   
C72      C      0.675130000000     0.874510000000     0.730200000000     0.472946   
C73      C      0.791630000000     0.068270000000     0.733600000000    -0.0389505  
C74      C      0.682920000000     0.939090000000     0.732740000000    -0.0319955  
C75      C      0.713870000000     0.915530000000     0.720270000000    -0.0021486  
C76      C      0.670230000000     0.911800000000     0.718890000000    -0.00160921 
C77      C      0.725330000000     0.989930000000     0.761920000000    -0.0545675  
C78      C      0.744450000000     0.022770000000     0.703010000000    -0.0544524  
C79      C      0.721240000000     0.980020000000     0.726740000000     0.0622715  
C80      C      0.724390000000     0.942410000000     0.734360000000    -0.0314027  
C81      C      0.749190000000     0.032680000000     0.738220000000     0.0630653  
C82      C      0.755220000000     0.074770000000     0.729470000000    -0.121772   
C83      C      0.739220000000     0.016060000000     0.767480000000    -0.0528343  
C84      C      0.771450000000     0.102470000000     0.741160000000     0.331435   
C85      C      0.808830000000     0.095490000000     0.745970000000     0.00550415 
C86      C      0.730600000000     0.996670000000     0.697460000000    -0.0508174  
C87      C      0.933480000000     0.278730000000     0.634340000000    -0.037757   
C88      C      0.967690000000     0.402690000000     0.558530000000    -0.0319391  
C89      C      0.022910000000     0.430020000000     0.551940000000    -0.000960484
C90      C      0.981770000000     0.431500000000     0.556210000000    -0.00133066 
C91      C      0.958120000000     0.348910000000     0.558700000000    -0.0549765  
C92      C      0.951850000000     0.335540000000     0.631600000000    -0.0541939  
C93      C      0.969950000000     0.367790000000     0.585150000000     0.0625352  
C94      C      0.006720000000     0.401180000000     0.554520000000    -0.0323306  
C95      C      0.939230000000     0.316760000000     0.605230000000     0.0621217  
C96      C      0.899680000000     0.288720000000     0.634880000000    -0.121848   
C97      C      0.942830000000     0.323620000000     0.568790000000    -0.0523516  
C98      C      0.879100000000     0.260980000000     0.638690000000     0.329675   
C99      C      0.914860000000     0.250330000000     0.637460000000     0.0047154  
C100     C      0.967000000000     0.360820000000     0.621520000000    -0.0521044  
C101     C      0.170540000000     0.740510000000     0.382910000000    -0.0378232  
C102     C      0.071270000000     0.614110000000     0.438180000000    -0.0321197  
C103     C      0.100210000000     0.587760000000     0.441310000000    -0.00154373 
C104     C      0.057270000000     0.585250000000     0.436450000000    -0.0012661  
C105     C      0.113920000000     0.661100000000     0.382120000000    -0.0525668  
C106     C      0.127830000000     0.694250000000     0.440600000000    -0.0528461  
C107     C      0.108970000000     0.651400000000     0.417210000000     0.0621065  
C108     C      0.112310000000     0.616550000000     0.442580000000    -0.0320521  
C109     C      0.132930000000     0.703960000000     0.405510000000     0.0620589  
C110     C      0.129990000000     0.739230000000     0.381140000000    -0.121253   
C111     C      0.125770000000     0.687140000000     0.376190000000    -0.0545379  
C112     C      0.142830000000     0.768160000000     0.381220000000     0.330047   
C113     C      0.185190000000     0.769340000000     0.383860000000     0.00421074 
C114     C      0.115890000000     0.668190000000     0.446530000000    -0.0552371  
C115     C      0.543160000000     0.609580000000     0.884280000000    -0.0374627  
C116     C      0.630530000000     0.723910000000     0.783000000000    -0.0315737  
C117     C      0.596880000000     0.736650000000     0.743750000000    -0.00217178 
C118     C      0.640290000000     0.741700000000     0.750530000000    -0.00209166 
C119     C      0.593610000000     0.692890000000     0.843380000000    -0.0550454  
C120     C      0.577080000000     0.642850000000     0.823440000000    -0.0537513  
C121     C      0.593820000000     0.686870000000     0.806810000000     0.0629395  
C122     C      0.588170000000     0.718910000000     0.776350000000    -0.0315629  
C123     C      0.576970000000     0.648900000000     0.860030000000     0.0621056  
C124     C      0.587080000000     0.620200000000     0.890900000000    -0.12119    
C125     C      0.585210000000     0.674000000000     0.869650000000    -0.0522312  
C126     C      0.581190000000     0.603780000000     0.924650000000     0.329404   
C127     C      0.535160000000     0.592850000000     0.917890000000     0.00310733 
C128     C      0.585410000000     0.661730000000     0.797150000000    -0.0522286  
C129     C      0.340360000000     0.071320000000     0.185030000000    -0.0379788  
C130     C      0.238650000000     0.950730000000     0.255740000000    -0.0318601  
C131     C      0.264550000000     0.921390000000     0.259490000000    -0.000469505
C132     C      0.222930000000     0.921930000000     0.258320000000    -0.00123952 
C133     C      0.284550000000     0.003570000000     0.254900000000    -0.05492    
C134     C      0.294130000000     0.017560000000     0.182350000000    -0.0541223  
C135     C      0.276240000000     0.984770000000     0.228120000000     0.0629359  
C136     C      0.278330000000     0.950250000000     0.256970000000    -0.0324062  
C137     C      0.302010000000     0.036340000000     0.209090000000     0.0621537  
C138     C      0.300430000000     0.070010000000     0.176590000000    -0.121632   
C139     C      0.297230000000     0.029110000000     0.245320000000    -0.0516155  
C140     C      0.312880000000     0.098850000000     0.174460000000     0.329472   
C141     C      0.355590000000     0.100160000000     0.184760000000     0.0070874  
C142     C      0.281260000000     0.992000000000     0.191910000000    -0.0520368  
C143     C      0.456260000000     0.298590000000     0.127550000000    -0.0379526  
C144     C      0.471110000000     0.412850000000     0.040450000000    -0.0312878  
C145     C      0.525500000000     0.449030000000     0.040300000000    -0.00141567 
C146     C      0.480170000000     0.440950000000     0.036290000000    -0.00231587 
C147     C      0.472890000000     0.364170000000     0.047120000000    -0.0547772  
C148     C      0.462680000000     0.351610000000     0.120040000000    -0.0541101  
C149     C      0.479310000000     0.383400000000     0.072790000000     0.062789   
C150     C      0.514170000000     0.420400000000     0.044560000000    -0.0321101  
C151     C      0.455500000000     0.332320000000     0.094240000000     0.0621423  
C152     C      0.416900000000     0.298560000000     0.120070000000    -0.12209    
C153     C      0.461030000000     0.338860000000     0.057870000000    -0.0519941  
C154     C      0.400790000000     0.269730000000     0.122440000000     0.330136   
C155     C      0.443140000000     0.269770000000     0.129660000000     0.00701832 
C156     C      0.474420000000     0.376920000000     0.109270000000    -0.0518896  
C157     C      0.638550000000     0.809950000000     0.571330000000    -0.038242   
C158     C      0.685370000000     0.828730000000     0.385290000000    -0.0318099  
C159     C      0.639060000000     0.792270000000     0.348420000000    -0.00105431 
C160     C      0.686360000000     0.821340000000     0.346220000000    -0.00149861 
C161     C      0.664600000000     0.834200000000     0.455950000000    -0.054867   
C162     C      0.661680000000     0.797410000000     0.503790000000    -0.0537316  
C163     C      0.663790000000     0.812240000000     0.442420000000     0.0628917  
C164     C      0.639340000000     0.800750000000     0.387310000000    -0.0320168  
C165     C      0.663800000000     0.819950000000     0.517330000000     0.061996   
C166     C      0.682480000000     0.820780000000     0.575750000000    -0.121613   
C167     C      0.664930000000     0.838080000000     0.493070000000    -0.0519494  
C168     C      0.684950000000     0.830600000000     0.614360000000     0.329127   
C169     C      0.638600000000     0.820110000000     0.608920000000     0.00607732 
C170     C      0.662020000000     0.793820000000     0.466660000000    -0.0520677  
C171     C      0.623810000000     0.839200000000     0.083500000000    -0.0377323  
C172     C      0.671290000000     0.846550000000     0.899400000000    -0.0322641  
C173     C      0.624740000000     0.821440000000     0.856840000000    -0.00176559 
C174     C      0.671410000000     0.834260000000     0.863550000000    -0.0011741  
C175     C      0.647180000000     0.862660000000     0.962200000000    -0.0547946  
C176     C      0.645330000000     0.829830000000     0.016240000000    -0.0544622  
C177     C      0.645910000000     0.839700000000     0.952730000000     0.0620922  
C178     C      0.626810000000     0.834000000000     0.893260000000    -0.0318156  
C179     C      0.645330000000     0.852180000000     0.025710000000     0.0622677  
C180     C      0.669780000000     0.867740000000     0.080450000000    -0.121711   
C181     C      0.646580000000     0.868620000000     0.998400000000    -0.0528448  
C182     C      0.669850000000     0.878190000000     0.117990000000     0.330562   
C183     C      0.622870000000     0.848790000000     0.121190000000     0.00256879 
C184     C      0.645290000000     0.823570000000     0.980060000000    -0.0526247  
C185     C      0.734210000000     0.680250000000     0.137970000000    -0.0378101  
C186     C      0.711340000000     0.784540000000     0.176210000000    -0.0315976  
C187     C      0.656760000000     0.765450000000     0.177050000000    -0.00157673 
C188     C      0.701230000000     0.802750000000     0.171270000000    -0.00195355 
C189     C      0.708200000000     0.735630000000     0.127480000000    -0.0514122  
C190     C      0.724260000000     0.722380000000     0.190270000000    -0.0524886  
C191     C      0.703460000000     0.742910000000     0.161020000000     0.0626938  
C192     C      0.668550000000     0.748480000000     0.181520000000    -0.0320565  
C193     C      0.729900000000     0.715990000000     0.156670000000     0.0626884  
C194     C      0.770620000000     0.722290000000     0.138030000000    -0.122553   
C195     C      0.721260000000     0.722230000000     0.125190000000    -0.0540588  
C196     C      0.789310000000     0.712720000000     0.143560000000     0.331028   
C197     C      0.750510000000     0.667900000000     0.144070000000     0.00604311 
C198     C      0.711110000000     0.735690000000     0.192560000000    -0.054724   
C199     C      0.646530000000     0.918860000000     0.316370000000    -0.037159   
C200     C      0.566920000000     0.954920000000     0.420990000000    -0.0323683  
C201     C      0.602690000000     0.006420000000     0.443380000000    -0.00172961 
C202     C      0.560530000000     0.967170000000     0.452180000000    -0.000965327
C203     C      0.596950000000     0.953630000000     0.355030000000    -0.0550363  
C204     C      0.618020000000     0.924650000000     0.379210000000    -0.0543884  
C205     C      0.601270000000     0.952570000000     0.392100000000     0.0627499  
C206     C      0.608180000000     0.993250000000     0.412500000000    -0.031547   
C207     C      0.614000000000     0.925980000000     0.342090000000     0.062079   
C208     C      0.602950000000     0.884710000000     0.319420000000    -0.121133   
C209     C      0.603400000000     0.940510000000     0.330320000000    -0.0522425  
C210     C      0.606440000000     0.871050000000     0.287280000000     0.329474   
C211     C      0.652260000000     0.907130000000     0.283930000000     0.0033699  
C212     C      0.611790000000     0.937970000000     0.403900000000    -0.0529759  
C213     C      0.033810000000     0.550560000000     0.839570000000    -0.0377064  
C214     C      0.069310000000     0.538900000000     0.655800000000    -0.0320451  
C215     C      0.032530000000     0.542440000000     0.608090000000     0.00028007 
C216     C      0.068220000000     0.531070000000     0.616330000000    -0.000588536
C217     C      0.016240000000     0.524410000000     0.719430000000    -0.0514033  
C218     C      0.056890000000     0.544300000000     0.767620000000    -0.0525425  
C219     C      0.041120000000     0.536150000000     0.705900000000     0.0612609  
C220     C      0.038540000000     0.552140000000     0.646740000000    -0.0321368  
C221     C      0.031990000000     0.531780000000     0.781130000000     0.061158   
C222     C      0.003490000000     0.506640000000     0.830840000000    -0.122395   
C223     C      0.011640000000     0.522820000000     0.756430000000    -0.0538416  
C224     C      0.003880000000     0.500100000000     0.870570000000     0.329344   
C225     C      0.038480000000     0.547090000000     0.879070000000     0.0084341  
C226     C      0.061510000000     0.547090000000     0.730560000000    -0.0540716  
C227     C      0.050210000000     0.502980000000     0.156180000000    -0.0375992  
C228     C      0.005790000000     0.475770000000     0.343740000000    -0.0319547  
C229     C      0.049930000000     0.478680000000     0.379400000000    -0.00151851 
C230     C      0.003790000000     0.466430000000     0.382490000000    -0.00201134 
C231     C      0.027760000000     0.461700000000     0.261710000000    -0.0519441  
C232     C      0.025840000000     0.503680000000     0.235580000000    -0.0523361  
C233     C      0.026220000000     0.478420000000     0.286060000000     0.0626992  
C234     C      0.050730000000     0.488150000000     0.340970000000    -0.0319472  
C235     C      0.026300000000     0.486410000000     0.211220000000     0.0619899  
C236     C      0.007570000000     0.467670000000     0.153160000000    -0.122403   
C237     C      0.028250000000     0.465820000000     0.224620000000    -0.0535691  
C238     C      0.003070000000     0.474530000000     0.115300000000     0.329866   
C239     C      0.048350000000     0.513050000000     0.119260000000     0.00639397 
C240     C      0.026250000000     0.500050000000     0.272670000000    -0.0550907  
C241     C      0.872480000000     0.590460000000     0.101280000000    -0.0376941  
C242     C      0.980830000000     0.578670000000     0.039630000000    -0.0321517  
C243     C      0.956350000000     0.523710000000     0.034360000000    -0.00181956 
C244     C      0.997350000000     0.566260000000     0.040480000000    -0.000315449
C245     C      0.935650000000     0.576720000000     0.097840000000    -0.0519544  
C246     C      0.918110000000     0.594350000000     0.041410000000    -0.0516958  
C247     C      0.941360000000     0.573860000000     0.062240000000     0.063083   
C248     C      0.942080000000     0.538440000000     0.034050000000    -0.0312832  
C249     C      0.912140000000     0.596950000000     0.077000000000     0.0624355  
C250     C      0.909690000000     0.631820000000     0.103820000000    -0.121524   
C251     C      0.921210000000     0.588210000000     0.105310000000    -0.0539985  
C252     C      0.894140000000     0.645330000000     0.103270000000     0.329955   
C253     C      0.854370000000     0.600970000000     0.099840000000     0.00632841 
C254     C      0.932660000000     0.582980000000     0.033960000000    -0.0548306  
C255     C      0.379510000000     0.156570000000     0.800480000000    -0.038091   
C256     C      0.396270000000     0.161390000000     0.996840000000    -0.0326752  
C257     C      0.370290000000     0.186840000000     0.025820000000    -0.00109484 
C258     C      0.402320000000     0.171650000000     0.035330000000     0.00105679 
C259     C      0.370290000000     0.161790000000     0.914490000000    -0.0527284  
C260     C      0.418520000000     0.183690000000     0.883420000000    -0.0520226  
C261     C      0.391980000000     0.174460000000     0.936630000000     0.0625619  
C262     C      0.366950000000     0.176730000000     0.987440000000    -0.0316503  
C263     C      0.397060000000     0.172800000000     0.860980000000     0.0628349  
C264     C      0.408640000000     0.201250000000     0.810450000000    -0.122852   
C265     C      0.372780000000     0.161650000000     0.877110000000    -0.0528619  
C266     C      0.418010000000     0.205110000000     0.771520000000     0.332343   
C267     C      0.387160000000     0.158820000000     0.760810000000     0.00422624 
C268     C      0.416040000000     0.185000000000     0.920590000000    -0.0513154  
C269     C      0.346110000000     0.193580000000     0.501630000000    -0.0382521  
C270     C      0.393620000000     0.208220000000     0.316490000000    -0.0325703  
C271     C      0.347920000000     0.184670000000     0.271980000000    -0.00115587 
C272     C      0.394350000000     0.196470000000     0.280450000000     0.000619677
C273     C      0.368330000000     0.184080000000     0.395220000000    -0.0511975  
C274     C      0.364640000000     0.226040000000     0.416580000000    -0.0516506  
C275     C      0.367140000000     0.199970000000     0.369000000000     0.0631464  
C276     C      0.349560000000     0.196600000000     0.308720000000    -0.0315938  
C277     C      0.365110000000     0.209740000000     0.442770000000     0.0638222  
C278     C      0.389930000000     0.228200000000     0.496360000000    -0.122046   
C279     C      0.367770000000     0.189080000000     0.431780000000    -0.0543854  
C280     C      0.388960000000     0.237660000000     0.534160000000     0.331894   
C281     C      0.344110000000     0.201880000000     0.539740000000     0.00409249 
C282     C      0.366070000000     0.221520000000     0.380000000000    -0.0538192  
C283     C      0.457310000000     0.174590000000     0.573990000000    -0.0371582  
C284     C      0.472970000000     0.076490000000     0.482550000000    -0.0317195  
C285     C      0.523030000000     0.103970000000     0.449440000000    -0.00176068 
C286     C      0.480480000000     0.064350000000     0.452530000000    -0.00207058 
C287     C      0.480170000000     0.114610000000     0.540850000000    -0.0547287  
C288     C      0.455780000000     0.139690000000     0.513460000000    -0.0543627  
C289     C      0.477740000000     0.116130000000     0.503330000000     0.062338   
C290     C      0.514410000000     0.115110000000     0.479580000000    -0.032087   
C291     C      0.457700000000     0.137670000000     0.550990000000     0.0625612  
C292     C      0.418500000000     0.134100000000     0.572320000000    -0.121292   
C293     C      0.470160000000     0.125270000000     0.564370000000    -0.0524755  
C294     C      0.406740000000     0.141280000000     0.603300000000     0.329873   
C295     C      0.447760000000     0.183780000000     0.605420000000     0.00382618 
C296     C      0.465710000000     0.128940000000     0.489930000000    -0.0521591  
C297     C      0.064660000000     0.437600000000     0.957070000000    -0.0372593  
C298     C      0.171960000000     0.419900000000     0.908130000000    -0.0315203  
C299     C      0.147870000000     0.364860000000     0.910570000000    -0.001016   
C300     C      0.188740000000     0.407960000000     0.912470000000    -0.00182108 
C301     C      0.125680000000     0.419890000000     0.962980000000    -0.0517873  
C302     C      0.110520000000     0.436720000000     0.902860000000    -0.0527202  
C303     C      0.132350000000     0.416030000000     0.928460000000     0.0624592  
C304     C      0.133440000000     0.379290000000     0.906240000000    -0.031993   
C305     C      0.104010000000     0.440750000000     0.937420000000     0.0625719  
C306     C      0.103860000000     0.477500000000     0.961340000000    -0.121573   
C307     C      0.111590000000     0.432090000000     0.967560000000    -0.0543536  
C308     C      0.090080000000     0.492720000000     0.959280000000     0.329991   
C309     C      0.048700000000     0.450490000000     0.953940000000     0.00447148 
C310     C      0.124540000000     0.424420000000     0.898280000000    -0.0550323  
C311     C      0.350990000000     0.267900000000     0.732090000000    -0.0372952  
C312     C      0.254160000000     0.279360000000     0.836280000000    -0.0318061  
C313     C      0.283820000000     0.330290000000     0.865310000000    -0.00238143 
C314     C      0.244190000000     0.287630000000     0.868340000000    -0.00202345 
C315     C      0.306770000000     0.272800000000     0.820700000000    -0.0514604  
C316     C      0.298860000000     0.275920000000     0.747120000000    -0.052193   
C317     C      0.292470000000     0.283810000000     0.809420000000     0.0627439  
C318     C      0.292570000000     0.320780000000     0.833310000000    -0.0313622  
C319     C      0.313140000000     0.264890000000     0.758390000000     0.0630175  
C320     C      0.311990000000     0.227510000000     0.734470000000    -0.12119    
C321     C      0.317040000000     0.263380000000     0.795510000000    -0.0540426  
C322     C      0.319790000000     0.217360000000     0.702140000000     0.330286   
C323     C      0.360550000000     0.259870000000     0.699380000000     0.00415657 
C324     C      0.288570000000     0.285320000000     0.772310000000    -0.0544188  
C325     C      0.523280000000     0.486170000000     0.633080000000    -0.0383245  
C326     C      0.507520000000     0.483570000000     0.822840000000    -0.0317501  
C327     C      0.553370000000     0.495560000000     0.863100000000    -0.00148263 
C328     C      0.505720000000     0.473950000000     0.861400000000    -0.00165507 
C329     C      0.545370000000     0.483570000000     0.745080000000    -0.0525311  
C330     C      0.525210000000     0.511550000000     0.714260000000    -0.0532069  
C331     C      0.532530000000     0.492220000000     0.767070000000     0.062448   
C332     C      0.553880000000     0.505030000000     0.824720000000    -0.0317915  
C333     C      0.538640000000     0.503280000000     0.692390000000     0.0613357  
C334     C      0.542510000000     0.531210000000     0.641730000000    -0.121756   
C335     C      0.548690000000     0.489320000000     0.708370000000    -0.0518732  
C336     C      0.551060000000     0.536870000000     0.602350000000     0.328849   
C337     C      0.531910000000     0.489250000000     0.593850000000     0.00569083 
C338     C      0.522900000000     0.506790000000     0.751300000000    -0.053673   
C339     C      0.555460000000     0.556950000000     0.125380000000    -0.0373015  
C340     C      0.546300000000     0.556090000000     0.315880000000    -0.0323798  
C341     C      0.520490000000     0.505820000000     0.348160000000    -0.00198656 
C342     C      0.538800000000     0.553450000000     0.355570000000    -0.000265911
C343     C      0.542360000000     0.529970000000     0.234680000000    -0.054006   
C344     C      0.519640000000     0.556230000000     0.205940000000    -0.0528362  
C345     C      0.529130000000     0.537820000000     0.257680000000     0.0617804  
C346     C      0.527970000000     0.511010000000     0.308390000000    -0.0318504  
C347     C      0.532300000000     0.548010000000     0.182850000000     0.0620271  
C348     C      0.509100000000     0.533730000000     0.126780000000    -0.121506   
C349     C      0.543230000000     0.534290000000     0.197590000000    -0.0540701  
C350     C      0.507740000000     0.542340000000     0.088440000000     0.330521   
C351     C      0.555450000000     0.565970000000     0.086970000000     0.00277951 
C352     C      0.517780000000     0.550910000000     0.242760000000    -0.0519913  
C353     C      0.877490000000     0.193280000000     0.030830000000    -0.0382206  
C354     C      0.851650000000     0.215680000000     0.845920000000    -0.0315118  
C355     C      0.886900000000     0.204470000000     0.808080000000    -0.000986236
C356     C      0.857560000000     0.222520000000     0.806140000000    -0.00183642 
C357     C      0.889960000000     0.230350000000     0.924670000000    -0.051999   
C358     C      0.846550000000     0.190240000000     0.955470000000    -0.051664   
C359     C      0.870430000000     0.212980000000     0.902350000000     0.0634417  
C360     C      0.879770000000     0.197840000000     0.847690000000    -0.0321094  
C361     C      0.865810000000     0.207900000000     0.977810000000     0.0620738  
C362     C      0.868480000000     0.227300000000     0.036240000000    -0.12205    
C363     C      0.887900000000     0.227720000000     0.962090000000    -0.0536389  
C364     C      0.859520000000     0.220710000000     0.075340000000     0.329351   
C365     C      0.867830000000     0.183210000000     0.068560000000     0.0082522  
C366     C      0.848900000000     0.192490000000     0.918070000000    -0.0551549  
C367     C      0.801480000000     0.152630000000     0.537240000000    -0.0368704  
C368     C      0.835430000000     0.146690000000     0.348940000000    -0.0324057  
C369     C      0.817500000000     0.177680000000     0.313840000000    -0.00175095 
C370     C      0.828910000000     0.143080000000     0.308780000000    -0.000862098
C371     C      0.843170000000     0.172450000000     0.424610000000    -0.0548067  
C372     C      0.802210000000     0.134560000000     0.462990000000    -0.0547344  
C373     C      0.821470000000     0.154370000000     0.405970000000     0.0621824  
C374     C      0.824140000000     0.179600000000     0.353810000000    -0.0318793  
C375     C      0.823190000000     0.153660000000     0.481700000000     0.0624272  
C376     C      0.830240000000     0.136380000000     0.536350000000    -0.121873   
C377     C      0.843800000000     0.172220000000     0.462170000000    -0.0524452  
C378     C      0.838730000000     0.143860000000     0.575410000000     0.331064   
C379     C      0.806960000000     0.160870000000     0.576560000000     0.00772157 
C380     C      0.801290000000     0.135190000000     0.425420000000    -0.0524844  
C381     C      0.176840000000     0.375390000000     0.543980000000    -0.0384676  
C382     C      0.180570000000     0.330180000000     0.726510000000    -0.0318314  
C383     C      0.224690000000     0.372980000000     0.759370000000    -0.00134982 
C384     C      0.192290000000     0.326040000000     0.760430000000    -0.0019232  
C385     C      0.169110000000     0.354270000000     0.664590000000    -0.0549964  
C386     C      0.197250000000     0.354200000000     0.605040000000    -0.0543966  
C387     C      0.191560000000     0.353250000000     0.669920000000     0.0619017  
C388     C      0.211300000000     0.375070000000     0.725590000000    -0.0321326  
C389     C      0.173870000000     0.353370000000     0.599680000000     0.0622879  
C390     C      0.161050000000     0.329820000000     0.543510000000    -0.12437    
C391     C      0.160240000000     0.353980000000     0.629720000000    -0.0527667  
C392     C      0.146720000000     0.326860000000     0.508330000000     0.332512   
C393     C      0.162760000000     0.373420000000     0.508700000000     0.0030943  
C394     C      0.205780000000     0.353810000000     0.639880000000    -0.0516947  
C395     C      0.199470000000     0.338370000000     0.046640000000    -0.0382534  
C396     C      0.217260000000     0.344590000000     0.240270000000    -0.0310719  
C397     C      0.205180000000     0.382760000000     0.264690000000    -0.00178502 
C398     C      0.222550000000     0.353730000000     0.279290000000    -0.00285365 
C399     C      0.230600000000     0.380750000000     0.154640000000    -0.0510296  
C400     C      0.210460000000     0.332050000000     0.126710000000    -0.0512558  
C401     C      0.219120000000     0.360020000000     0.178190000000     0.0624455  
C402     C      0.200000000000     0.371950000000     0.226360000000    -0.0316533  
C403     C      0.222200000000     0.352780000000     0.103210000000     0.0618114  
C404     C      0.244400000000     0.369150000000     0.045030000000    -0.121636   
C405     C      0.231640000000     0.377280000000     0.117580000000    -0.0527499  
C406     C      0.247410000000     0.360370000000     0.007590000000     0.329031   
C407     C      0.200700000000     0.327370000000     0.010180000000     0.00455916 
C408     C      0.208300000000     0.335470000000     0.163490000000    -0.0534314  
C409     C      0.077780000000     0.282390000000     0.323990000000    -0.0369766  
C410     C      0.955270000000     0.258340000000     0.249600000000    -0.0312143  
C411     C      0.936240000000     0.209010000000     0.215910000000    -0.00156773 
C412     C      0.934220000000     0.249380000000     0.221260000000    -0.00258325 
C413     C      0.017890000000     0.270980000000     0.247910000000    -0.0521673  
C414     C      0.014920000000     0.268020000000     0.323070000000    -0.0523361  
C415     C      0.994050000000     0.258260000000     0.264570000000     0.062658   
C416     C      0.957110000000     0.219600000000     0.244630000000    -0.0318753  
C417     C      0.038770000000     0.281070000000     0.306430000000     0.0623465  
C418     C      0.075460000000     0.320840000000     0.323170000000    -0.121182   
C419     C      0.040110000000     0.282250000000     0.268540000000    -0.0540856  
C420     C      0.096530000000     0.333510000000     0.351360000000     0.329228   
C421     C      0.098630000000     0.292850000000     0.352710000000     0.00305182 
C422     C      0.992710000000     0.256610000000     0.302420000000    -0.0546605  
C423     C      0.292180000000     0.436300000000     0.428990000000    -0.0380425  
C424     C      0.418560000000     0.456620000000     0.471570000000    -0.0322759  
C425     C      0.452550000000     0.511340000000     0.471010000000    -0.00149077 
C426     C      0.446660000000     0.466770000000     0.463870000000    -7.95725e-05
C427     C      0.371990000000     0.457630000000     0.422190000000    -0.0522443  
C428     C      0.342180000000     0.443440000000     0.484470000000    -0.0523308  
C429     C      0.383790000000     0.463220000000     0.455980000000     0.0625692  
C430     C      0.423820000000     0.498300000000     0.477520000000    -0.0315965  
C431     C      0.330370000000     0.437500000000     0.450640000000     0.0618422  
C432     C      0.294000000000     0.397660000000     0.433870000000    -0.121548   
C433     C      0.345540000000     0.444840000000     0.419400000000    -0.054172   
C434     C      0.265110000000     0.381440000000     0.437650000000     0.329962   
C435     C      0.263290000000     0.422090000000     0.433040000000     0.00426116 
C436     C      0.368670000000     0.456130000000     0.487250000000    -0.0552004  
C437     C      0.584010000000     0.058090000000     0.797870000000    -0.0374763  
C438     C      0.579870000000     0.067460000000     0.605520000000    -0.0321822  
C439     C      0.531500000000     0.027270000000     0.577700000000    -0.000182898
C440     C      0.578800000000     0.057670000000     0.567270000000    -0.00172906 
C441     C      0.553230000000     0.031800000000     0.690150000000    -0.05246    
C442     C      0.574510000000     0.080700000000     0.718050000000    -0.0524452  
C443     C      0.562700000000     0.052380000000     0.666410000000     0.0625585  
C444     C      0.534850000000     0.039490000000     0.614630000000    -0.0323778  
C445     C      0.564440000000     0.059850000000     0.741810000000     0.0618751  
C446     C      0.566680000000     0.085830000000     0.794490000000    -0.120982   
C447     C      0.553650000000     0.035450000000     0.727250000000    -0.0520491  
C448     C      0.562730000000     0.084570000000     0.835650000000     0.328969   
C449     C      0.575760000000     0.049890000000     0.836590000000     0.015304   
C450     C      0.572980000000     0.076950000000     0.680780000000    -0.053304   
C451     C      0.538010000000     0.044620000000     0.284410000000    -0.0384415  
C452     C      0.507060000000     0.999590000000     0.098280000000    -0.0313583  
C453     C      0.502800000000     0.041650000000     0.069150000000    -0.000848003
C454     C      0.496560000000     0.998070000000     0.060290000000    -0.0018999  
C455     C      0.531360000000     0.018510000000     0.169830000000    -0.0550938  
C456     C      0.497090000000     0.017260000000     0.221170000000    -0.0539732  
C457     C      0.508200000000     0.016380000000     0.158530000000     0.0628921  
C458     C      0.513760000000     0.042240000000     0.106430000000    -0.0318637  
C459     C      0.519540000000     0.017870000000     0.232510000000     0.061574   
C460     C      0.505000000000     0.001140000000     0.293010000000    -0.122765   
C461     C      0.536660000000     0.018760000000     0.206490000000    -0.0522295  
C462     C      0.514660000000     0.999990000000     0.330610000000     0.329756   
C463     C      0.549990000000     0.045510000000     0.321000000000     0.00527478 
C464     C      0.491350000000     0.016060000000     0.184540000000    -0.0527173  
C465     C      0.635480000000     0.070350000000     0.024370000000    -0.0370541  
C466     C      0.743190000000     0.153310000000     0.139120000000    -0.0321053  
C467     C      0.763420000000     0.120460000000     0.158480000000    -0.00164109 
C468     C      0.760720000000     0.159570000000     0.171670000000    -0.00133954 
C469     C      0.683700000000     0.104800000000     0.117210000000    -0.0524763  
C470     C      0.695660000000     0.119020000000     0.045100000000    -0.0520587  
C471     C      0.709210000000     0.118700000000     0.106700000000     0.0623786  
C472     C      0.745510000000     0.115300000000     0.126500000000    -0.0322459  
C473     C      0.670150000000     0.105060000000     0.055590000000     0.0627509  
C474     C      0.634320000000     0.108950000000     0.035190000000    -0.119987   
C475     C      0.664270000000     0.098000000000     0.091980000000    -0.0546025  
C476     C      0.616500000000     0.103970000000     0.003080000000     0.329095   
C477     C      0.618330000000     0.063950000000     0.991410000000     0.00361503 
C478     C      0.715090000000     0.125870000000     0.070360000000    -0.0543989  
C479     C      0.235550000000     0.865500000000     0.474090000000    -0.0379675  
C480     C      0.197180000000     0.866850000000     0.661680000000    -0.0319566  
C481     C      0.205260000000     0.827540000000     0.693030000000    -0.00101565 
C482     C      0.184930000000     0.855270000000     0.697930000000    -0.0018353  
C483     C      0.227860000000     0.879380000000     0.593710000000    -0.0545351  
C484     C      0.197670000000     0.846370000000     0.539250000000    -0.0542201  
C485     C      0.206630000000     0.855940000000     0.602920000000     0.0621703  
C486     C      0.216830000000     0.840840000000     0.657270000000    -0.0323024  
C487     C      0.218100000000     0.870340000000     0.530050000000     0.0626481  
C488     C      0.202350000000     0.877080000000     0.473220000000    -0.123597   
C489     C      0.233300000000     0.886550000000     0.557570000000    -0.0522962  
C490     C      0.210750000000     0.888890000000     0.435780000000     0.331968   
C491     C      0.244820000000     0.877260000000     0.436750000000     0.0026722  
C492     C      0.191890000000     0.839440000000     0.575380000000    -0.0516133  
C493     C      0.190030000000     0.801630000000     0.979700000000    -0.0380077  
C494     C      0.167670000000     0.819380000000     0.169170000000    -0.0317066  
C495     C      0.197980000000     0.802750000000     0.209250000000    -0.00204255 
C496     C      0.161310000000     0.811000000000     0.208500000000    -0.0020301  
C497     C      0.200460000000     0.833370000000     0.098690000000    -0.0546946  
C498     C      0.166860000000     0.794580000000     0.053010000000    -0.0539976  
C499     C      0.181910000000     0.810160000000     0.113500000000     0.0624626  
C500     C      0.203010000000     0.811020000000     0.169760000000    -0.0317273  
C501     C      0.186170000000     0.817370000000     0.038170000000     0.061951   
C502     C      0.169440000000     0.826550000000     0.984750000000    -0.121337   
C503     C      0.202690000000     0.836740000000     0.061360000000    -0.0522897  
C504     C      0.176760000000     0.836960000000     0.946400000000     0.329826   
C505     C      0.198540000000     0.810190000000     0.940990000000     0.0055318  
C506     C      0.165020000000     0.790990000000     0.090330000000    -0.0521481  
C507     C      0.425680000000     0.007730000000     0.900610000000    -0.0377475  
C508     C      0.307860000000     0.896820000000     0.840310000000    -0.0321019  
C509     C      0.267790000000     0.909770000000     0.847090000000    -0.00178997 
C510     C      0.280410000000     0.875460000000     0.843940000000    -0.000862539
C511     C      0.348180000000     0.942850000000     0.898910000000    -0.0523161  
C512     C      0.379660000000     0.966070000000     0.839570000000    -0.0525043  
C513     C      0.337710000000     0.937840000000     0.864250000000     0.0624097  
C514     C      0.296120000000     0.929180000000     0.843490000000    -0.0317165  
C515     C      0.390260000000     0.970500000000     0.874170000000     0.0620246  
C516     C      0.428160000000     0.969730000000     0.891210000000    -0.121687   
C517     C      0.374200000000     0.959030000000     0.903970000000    -0.0543973  
C518     C      0.457180000000     0.984610000000     0.889420000000     0.329576   
C519     C      0.454620000000     0.024490000000     0.898920000000     0.00335639 
C520     C      0.353590000000     0.949910000000     0.834530000000    -0.0549991  
C521     C      0.836170000000     0.679650000000     0.959440000000    -0.0371608  
C522     C      0.859090000000     0.676890000000     0.780210000000    -0.0315308  
C523     C      0.859520000000     0.633420000000     0.748240000000    -0.000471919
C524     C      0.873100000000     0.680240000000     0.744650000000    -0.00215211 
C525     C      0.866670000000     0.655660000000     0.866120000000    -0.0522935  
C526     C      0.820870000000     0.653840000000     0.882830000000    -0.0532396  
C527     C      0.851170000000     0.655720000000     0.838270000000     0.063205   
C528     C      0.845800000000     0.632330000000     0.783290000000    -0.0322143  
C529     C      0.836570000000     0.653770000000     0.910750000000     0.0625887  
C530     C      0.804910000000     0.635520000000     0.958780000000    -0.122027   
C531     C      0.859400000000     0.654610000000     0.902000000000    -0.0520902  
C532     C      0.802620000000     0.633850000000     0.000000000000     0.330283   
C533     C      0.838100000000     0.681270000000     0.000380000000     0.00930554 
C534     C      0.827870000000     0.654280000000     0.846830000000    -0.0536967  
C535     C      0.877460000000     0.674390000000     0.462830000000    -0.0375288  
C536     C      0.823930000000     0.629510000000     0.282550000000    -0.0325591  
C537     C      0.841840000000     0.678690000000     0.248770000000    -0.000863166
C538     C      0.810330000000     0.631620000000     0.249060000000    -5.48401e-05
C539     C      0.866200000000     0.649570000000     0.342330000000    -0.0541927  
C540     C      0.839480000000     0.650340000000     0.403180000000    -0.0540486  
C541     C      0.843880000000     0.650980000000     0.338140000000     0.0632373  
C542     C      0.853990000000     0.674670000000     0.282250000000    -0.0319008  
C543     C      0.862660000000     0.650570000000     0.407400000000     0.0632657  
C544     C      0.859340000000     0.628610000000     0.463210000000    -0.120831   
C545     C      0.875590000000     0.649650000000     0.376740000000    -0.0512383  
C546     C      0.873730000000     0.629890000000     0.497850000000     0.330629   
C547     C      0.892450000000     0.677150000000     0.497190000000     0.00380065 
C548     C      0.830390000000     0.650830000000     0.368790000000    -0.0516688  
C549     C      0.761270000000     0.589700000000     0.581160000000    -0.0377985  
C550     C      0.648220000000     0.583860000000     0.500160000000    -0.0323416  
C551     C      0.621010000000     0.532910000000     0.470520000000    -0.00138856 
C552     C      0.627410000000     0.576890000000     0.471980000000    -0.000825658
C553     C      0.680380000000     0.575860000000     0.555820000000    -0.0543643  
C554     C      0.728050000000     0.595010000000     0.523360000000    -0.0540787  
C555     C      0.682310000000     0.576580000000     0.517990000000     0.0628297  
C556     C      0.642120000000     0.541140000000     0.498730000000    -0.0322704  
C557     C      0.726170000000     0.594740000000     0.561200000000     0.0629843  
C558     C      0.765900000000     0.631610000000     0.578040000000    -0.121543   
C559     C      0.702180000000     0.584940000000     0.577130000000    -0.0516982  
C560     C      0.787100000000     0.641890000000     0.606310000000     0.330507   
C561     C      0.782010000000     0.598300000000     0.609890000000     0.00407745 
C562     C      0.706260000000     0.586060000000     0.502050000000    -0.0518591  
C563     C      0.975290000000     0.675380000000     0.672370000000    -0.0377064  
C564     C      0.082260000000     0.774180000000     0.773340000000    -0.0317396  
C565     C      0.112570000000     0.753240000000     0.801880000000    -0.00207544 
C566     C      0.099830000000     0.786570000000     0.805580000000    -0.00186438 
C567     C      0.058890000000     0.736760000000     0.709220000000    -0.0545931  
C568     C      0.008510000000     0.708960000000     0.732720000000    -0.054382   
C569     C      0.053570000000     0.733960000000     0.746400000000     0.0624544  
C570     C      0.094270000000     0.741540000000     0.770050000000    -0.0317614  
C571     C      0.013840000000     0.711590000000     0.695530000000     0.062399   
C572     C      0.981650000000     0.718050000000     0.667900000000    -0.122396   
C573     C      0.039170000000     0.725450000000     0.684140000000    -0.0524806  
C574     C      0.963630000000     0.710570000000     0.635690000000     0.331008   
C575     C      0.956680000000     0.666530000000     0.640590000000     0.00203445 
C576     C      0.028270000000     0.719890000000     0.757810000000    -0.052234   
F1       F      0.762440000000     0.116510000000     0.723680000000    -0.436887   
F2       F      0.861060000000     0.259850000000     0.662670000000    -0.43766    
F3       F      0.128840000000     0.774980000000     0.359080000000    -0.435587   
F4       F      0.596280000000     0.592650000000     0.923770000000    -0.439021   
F5       F      0.302360000000     0.104810000000     0.145540000000    -0.43706    
F6       F      0.380550000000     0.263740000000     0.145380000000    -0.437522   
F7       F      0.698660000000     0.822130000000     0.634050000000    -0.437811   
F8       F      0.693010000000     0.885330000000     0.134250000000    -0.440761   
F9       F      0.810040000000     0.726680000000     0.121310000000    -0.435646   
F10      F      0.592760000000     0.845300000000     0.294210000000    -0.441152   
F11      F      0.979030000000     0.487100000000     0.882930000000    -0.437067   
F12      F      0.991770000000     0.452570000000     0.094910000000    -0.435571   
F13      F      0.904080000000     0.664330000000     0.128970000000    -0.43759    
F14      F      0.423860000000     0.229220000000     0.760940000000    -0.438717   
F15      F      0.413110000000     0.248630000000     0.548950000000    -0.438823   
F16      F      0.381110000000     0.131210000000     0.595820000000    -0.437698   
F17      F      0.101770000000     0.512680000000     0.983330000000    -0.439371   
F18      F      0.311330000000     0.191970000000     0.708330000000    -0.436153   
F19      F      0.547050000000     0.556160000000     0.590560000000    -0.440069   
F20      F      0.486130000000     0.523420000000     0.071900000000    -0.441031   
F21      F      0.871410000000     0.242740000000     0.095540000000    -0.437616   
F22      F      0.836760000000     0.123110000000     0.593600000000    -0.439677   
F23      F      0.145280000000     0.306860000000     0.488760000000    -0.43646    
F24      F      0.264780000000     0.381330000000     0.988200000000    -0.439031   
F25      F      0.111310000000     0.358770000000     0.341990000000    -0.440402   
F26      F      0.257390000000     0.359030000000     0.419180000000    -0.437074   
F27      F      0.580340000000     0.107390000000     0.850940000000    -0.43475    
F28      F      0.493720000000     0.985980000000     0.352450000000    -0.440678   
F29      F      0.599530000000     0.111970000000     0.012420000000    -0.43578    
F30      F      0.189920000000     0.886630000000     0.417210000000    -0.434925   
F31      F      0.155980000000     0.836890000000     0.930740000000    -0.439133   
F32      F      0.466140000000     0.970120000000     0.905730000000    -0.440573   
F33      F      0.777420000000     0.624520000000     0.009450000000    -0.437025   
F34      F      0.858740000000     0.608270000000     0.517840000000    -0.440618   
F35      F      0.804200000000     0.666870000000     0.597880000000    -0.436375   
F36      F      0.951950000000     0.725120000000     0.636200000000    -0.436771   
H1       H      0.727720000000     0.989310000000     0.670280000000     0.048889   
H2       H      0.798710000000     0.056260000000     0.745780000000     0.0401708  
H3       H      0.735380000000     0.067620000000     0.738850000000     0.0811925  
H4       H      0.717890000000     0.916420000000     0.690930000000     0.0414254  
H5       H      0.809450000000     0.095720000000     0.775910000000     0.0331859  
H6       H      0.672000000000     0.948000000000     0.722460000000     0.0367757  
H7       H      0.744530000000     0.953860000000     0.725540000000     0.0386646  
H8       H      0.651220000000     0.900820000000     0.731700000000     0.0389319  
H9       H      0.752010000000     0.035150000000     0.679910000000     0.048746   
H10      H      0.828410000000     0.101960000000     0.736170000000     0.0454431  
H11      H      0.718430000000     0.977470000000     0.785010000000     0.0420812  
H12      H      0.792880000000     0.067400000000     0.703760000000     0.0513625  
H13      H      0.724310000000     0.907140000000     0.733720000000     0.0446401  
H14      H      0.768970000000     0.103610000000     0.770630000000    -0.00938098 
H15      H      0.682090000000     0.938910000000     0.762700000000     0.0381199  
H16      H      0.724030000000     0.942080000000     0.764360000000     0.039154   
H17      H      0.742790000000     0.023390000000     0.794710000000     0.0471303  
H18      H      0.755040000000     0.073820000000     0.699520000000     0.0873206  
H19      H      0.667230000000     0.911890000000     0.689360000000     0.0378008  
H20      H      0.976020000000     0.375150000000     0.642140000000     0.0476538  
H21      H      0.950650000000     0.281470000000     0.619640000000     0.0380419  
H22      H      0.891320000000     0.298880000000     0.620470000000     0.079762   
H23      H      0.031580000000     0.437580000000     0.578730000000     0.0367908  
H24      H      0.912590000000     0.241570000000     0.610470000000     0.0360765  
H25      H      0.950000000000     0.396470000000     0.574410000000     0.0381619  
H26      H      0.018310000000     0.393850000000     0.567470000000     0.0365144  
H27      H      0.970110000000     0.437220000000     0.539870000000     0.0405813  
H28      H      0.949430000000     0.330760000000     0.659940000000     0.044629   
H29      H      0.923390000000     0.242000000000     0.655530000000     0.0411426  
H30      H      0.960160000000     0.353800000000     0.530410000000     0.0426013  
H31      H      0.939470000000     0.286920000000     0.661800000000     0.0419746  
H32      H      0.038670000000     0.434800000000     0.532630000000     0.0393727  
H33      H      0.869730000000     0.254080000000     0.612100000000    -0.00949907 
H34      H      0.962170000000     0.394650000000     0.530910000000     0.0390248  
H35      H      0.001560000000     0.393040000000     0.526920000000     0.0389506  
H36      H      0.933240000000     0.309390000000     0.548230000000     0.0472163  
H37      H      0.905600000000     0.297240000000     0.662190000000     0.0861825  
H38      H      0.983350000000     0.439300000000     0.583750000000     0.0377102  
H39      H      0.112130000000     0.661160000000     0.473900000000     0.0416253  
H40      H      0.181930000000     0.733520000000     0.397330000000     0.0362301  
H41      H      0.111140000000     0.731420000000     0.394490000000     0.0811592  
H42      H      0.101970000000     0.582100000000     0.413480000000     0.0355701  
H43      H      0.190390000000     0.775570000000     0.412260000000     0.0325248  
H44      H      0.059970000000     0.620870000000     0.423000000000     0.0376239  
H45      H      0.131660000000     0.625100000000     0.430600000000     0.0352627  
H46      H      0.038980000000     0.577890000000     0.451150000000     0.0402323  
H47      H      0.133210000000     0.706960000000     0.463390000000     0.0464648  
H48      H      0.203170000000     0.775990000000     0.368600000000     0.039499   
H49      H      0.108590000000     0.648390000000     0.359330000000     0.0464875  
H50      H      0.168280000000     0.734080000000     0.354390000000     0.041537   
H51      H      0.111140000000     0.582140000000     0.459430000000     0.038895   
H52      H      0.142220000000     0.774530000000     0.409060000000    -0.00691764 
H53      H      0.072560000000     0.620190000000     0.466750000000     0.0389464  
H54      H      0.114300000000     0.622730000000     0.471180000000     0.0377101  
H55      H      0.129450000000     0.694120000000     0.348790000000     0.0439407  
H56      H      0.126760000000     0.732380000000     0.352780000000     0.084936   
H57      H      0.052720000000     0.579330000000     0.407830000000     0.0364307  
H58      H      0.585580000000     0.656840000000     0.769160000000     0.0491332  
H59      H      0.530240000000     0.617490000000     0.881160000000     0.0378208  
H60      H      0.607030000000     0.636060000000     0.892840000000     0.0810228  
H61      H      0.592120000000     0.724990000000     0.718910000000     0.0386471  
H62      H      0.533810000000     0.603800000000     0.940860000000     0.0368883  
H63      H      0.641180000000     0.713460000000     0.784540000000     0.0400439  
H64      H      0.567670000000     0.704780000000     0.772970000000     0.036502   
H65      H      0.660740000000     0.755630000000     0.754650000000     0.0468945  
H66      H      0.571020000000     0.623650000000     0.815270000000     0.0442981  
H67      H      0.515840000000     0.576480000000     0.913150000000     0.0422864  
H68      H      0.600160000000     0.712180000000     0.851620000000     0.0423577  
H69      H      0.540890000000     0.597760000000     0.860210000000     0.0411022  
H70      H      0.586120000000     0.746980000000     0.743070000000     0.0404331  
H71      H      0.586620000000     0.616240000000     0.948720000000    -0.00859882 
H72      H      0.634430000000     0.735350000000     0.807990000000     0.0405898  
H73      H      0.590370000000     0.730150000000     0.801070000000     0.0385765  
H74      H      0.585390000000     0.678960000000     0.897690000000     0.0473394  
H75      H      0.585610000000     0.608740000000     0.866720000000     0.084262   
H76      H      0.638680000000     0.730360000000     0.726220000000     0.0425919  
H77      H      0.275130000000     0.977740000000     0.171050000000     0.0474443  
H78      H      0.350880000000     0.064320000000     0.201610000000     0.0370065  
H79      H      0.280780000000     0.062290000000     0.187170000000     0.0787188  
H80      H      0.264160000000     0.913570000000     0.232310000000     0.0363868  
H81      H      0.361940000000     0.106920000000     0.212720000000     0.0346766  
H82      H      0.227360000000     0.957590000000     0.240740000000     0.0405311  
H83      H      0.296750000000     0.956770000000     0.242900000000     0.0365018  
H84      H      0.206050000000     0.916890000000     0.275440000000     0.0485727  
H85      H      0.297860000000     0.022640000000     0.154180000000     0.0448191  
H86      H      0.373020000000     0.106250000000     0.168350000000     0.0388991  
H87      H      0.281140000000     0.998500000000     0.283100000000     0.0447812  
H88      H      0.338920000000     0.064040000000     0.157110000000     0.0420886  
H89      H      0.275690000000     0.915930000000     0.277470000000     0.0403062  
H90      H      0.308050000000     0.105670000000     0.199380000000    -0.00784616 
H91      H      0.242200000000     0.958860000000     0.283390000000     0.0438997  
H92      H      0.282460000000     0.958430000000     0.284610000000     0.0408466  
H93      H      0.303380000000     0.043370000000     0.266180000000     0.0481396  
H94      H      0.298990000000     0.062250000000     0.148990000000     0.0868492  
H95      H      0.215910000000     0.914170000000     0.230970000000     0.0382064  
H96      H      0.479220000000     0.391510000000     0.129300000000     0.0479974  
H97      H      0.475760000000     0.305800000000     0.116660000000     0.0375869  
H98      H      0.406470000000     0.305560000000     0.103290000000     0.0783704  
H99      H      0.531290000000     0.458010000000     0.067290000000     0.0391709  
H100     H      0.446990000000     0.262580000000     0.104290000000     0.0350182  
H101     H      0.452120000000     0.403660000000     0.053670000000     0.0406939  
H102     H      0.527470000000     0.416950000000     0.061010000000     0.0370607  
H103     H      0.467260000000     0.443000000000     0.017060000000     0.0483908  
H104     H      0.458710000000     0.347080000000     0.148320000000     0.0446911  
H105     H      0.451930000000     0.264530000000     0.151910000000     0.0391921  
H106     H      0.476440000000     0.368660000000     0.018770000000     0.043327   
H107     H      0.458090000000     0.306510000000     0.155130000000     0.0419805  
H108     H      0.542930000000     0.456490000000     0.023500000000     0.0409725  
H109     H      0.392870000000     0.262290000000     0.095270000000    -0.00833789 
H110     H      0.468900000000     0.404260000000     0.013280000000     0.0402034  
H111     H      0.512410000000     0.411750000000     0.017550000000     0.0392528  
H112     H      0.455660000000     0.324220000000     0.037750000000     0.0479189  
H113     H      0.419200000000     0.306830000000     0.147500000000     0.0870184  
H114     H      0.478350000000     0.448470000000     0.062710000000     0.0477133  
H115     H      0.660760000000     0.776570000000     0.456670000000     0.0477374  
H116     H      0.624260000000     0.811730000000     0.554670000000     0.0372513  
H117     H      0.701450000000     0.831140000000     0.562600000000     0.079586   
H118     H      0.639950000000     0.774500000000     0.348870000000     0.0371975  
H119     H      0.640080000000     0.838960000000     0.606240000000     0.0345796  
H120     H      0.703580000000     0.833370000000     0.398710000000     0.0384726  
H121     H      0.623600000000     0.784830000000     0.402240000000     0.0386111  
H122     H      0.701850000000     0.837830000000     0.331920000000     0.0421354  
H123     H      0.659890000000     0.782660000000     0.521780000000     0.0455682  
H124     H      0.620010000000     0.807250000000     0.621870000000     0.0388193  
H125     H      0.665090000000     0.848370000000     0.437940000000     0.0433901  
H126     H      0.632670000000     0.789510000000     0.572980000000     0.0431247  
H127     H      0.620800000000     0.788070000000     0.335680000000     0.0479109  
H128     H      0.696100000000     0.851610000000     0.613750000000    -0.00944118 
H129     H      0.683530000000     0.845990000000     0.385230000000     0.0410012  
H130     H      0.635890000000     0.817050000000     0.387500000000     0.0455729  
H131     H      0.665920000000     0.855220000000     0.503050000000     0.0466613  
H132     H      0.676730000000     0.800380000000     0.576780000000     0.0864319  
H133     H      0.691200000000     0.806010000000     0.346250000000     0.0365823  
H134     H      0.644910000000     0.806140000000     0.973210000000     0.0465045  
H135     H      0.605510000000     0.833590000000     0.069610000000     0.0381547  
H136     H      0.685260000000     0.883030000000     0.064290000000     0.0809308  
H137     H      0.615430000000     0.800650000000     0.860950000000     0.0352054  
H138     H      0.618260000000     0.864220000000     0.118410000000     0.0357326  
H139     H      0.685750000000     0.846100000000     0.917370000000     0.0376603  
H140     H      0.607900000000     0.824050000000     0.906650000000     0.0358188  
H141     H      0.689990000000     0.846360000000     0.850100000000     0.0405166  
H142     H      0.645280000000     0.817170000000     0.036700000000     0.0432626  
H143     H      0.607230000000     0.833270000000     0.136710000000     0.0432258  
H144     H      0.648500000000     0.875890000000     0.941730000000     0.0419857  
H145     H      0.625850000000     0.822150000000     0.086360000000     0.0417643  
H146     H      0.612110000000     0.825050000000     0.839140000000     0.0394402  
H147     H      0.667970000000     0.895310000000     0.114770000000    -0.00923951 
H148     H      0.676790000000     0.866690000000     0.894880000000     0.0394832  
H149     H      0.631870000000     0.854000000000     0.888570000000     0.0376715  
H150     H      0.647220000000     0.886180000000     0.005270000000     0.0472849  
H151     H      0.673780000000     0.851850000000     0.082890000000     0.0819499  
H152     H      0.669840000000     0.815620000000     0.869080000000     0.0382653  
H153     H      0.707760000000     0.741140000000     0.218820000000     0.0426393  
H154     H      0.715080000000     0.667780000000     0.149820000000     0.0388331  
H155     H      0.779050000000     0.741540000000     0.150030000000     0.0800984  
H156     H      0.650890000000     0.764640000000     0.148480000000     0.0378376  
H157     H      0.748490000000     0.661670000000     0.172620000000     0.0350042  
H158     H      0.729660000000     0.792250000000     0.161410000000     0.0400806  
H159     H      0.655080000000     0.729440000000     0.170490000000     0.0367419  
H160     H      0.714870000000     0.821150000000     0.183780000000     0.0478122  
H161     H      0.730860000000     0.717780000000     0.214690000000     0.0474788  
H162     H      0.742850000000     0.650640000000     0.127050000000     0.0469513  
H163     H      0.702510000000     0.741140000000     0.103010000000     0.0486504  
H164     H      0.731780000000     0.681800000000     0.108510000000     0.0465434  
H165     H      0.639400000000     0.757790000000     0.194030000000     0.0404442  
H166     H      0.796100000000     0.716440000000     0.171930000000    -0.00885006 
H167     H      0.715110000000     0.783500000000     0.205350000000     0.0407794  
H168     H      0.671260000000     0.746400000000     0.210730000000     0.0388149  
H169     H      0.725420000000     0.717570000000     0.098890000000     0.0468436  
H170     H      0.768070000000     0.724000000000     0.108630000000     0.0889217  
H171     H      0.700500000000     0.806100000000     0.141960000000     0.0420174  
H172     H      0.614990000000     0.936790000000     0.432350000000     0.0463651  
H173     H      0.658990000000     0.939760000000     0.314920000000     0.0376468  
H174     H      0.582720000000     0.880000000000     0.320140000000     0.0795476  
H175     H      0.611070000000     0.003710000000     0.468470000000     0.0357141  
H176     H      0.651470000000     0.916950000000     0.259140000000     0.0372306  
H177     H      0.557490000000     0.934200000000     0.426040000000     0.0389475  
H178     H      0.629030000000     0.000640000000     0.411350000000     0.0358949  
H179     H      0.539650000000     0.959470000000     0.452860000000     0.0451491  
H180     H      0.625840000000     0.913260000000     0.389090000000     0.0429249  
H181     H      0.672040000000     0.910770000000     0.286610000000     0.0429532  
H182     H      0.588530000000     0.964490000000     0.345210000000     0.0438687  
H183     H      0.651250000000     0.912080000000     0.341490000000     0.0407748  
H184     H      0.612250000000     0.027030000000     0.437770000000     0.040098   
H185     H      0.598240000000     0.874930000000     0.262950000000    -0.00868551 
H186     H      0.559130000000     0.958030000000     0.395550000000     0.0448106  
H187     H      0.602190000000     0.998070000000     0.386730000000     0.0399969  
H188     H      0.599940000000     0.941470000000     0.301910000000     0.0477833  
H189     H      0.607040000000     0.877670000000     0.344830000000     0.0834264  
H190     H      0.566150000000     0.961870000000     0.477820000000     0.0364344  
H191     H      0.081060000000     0.556920000000     0.721620000000     0.0406856  
H192     H      0.051220000000     0.567350000000     0.829050000000     0.0359523  
H193     H      0.998520000000     0.489460000000     0.814600000000     0.0750814  
H194     H      0.013030000000     0.525720000000     0.607360000000     0.0408787  
H195     H      0.057670000000     0.549090000000     0.881520000000     0.0396702  
H196     H      0.074660000000     0.527090000000     0.672440000000     0.035641   
H197     H      0.021580000000     0.552240000000     0.657870000000     0.0345761  
H198     H      0.087700000000     0.541350000000     0.604760000000     0.0364832  
H199     H      0.072870000000     0.551640000000     0.786000000000     0.0449681  
H200     H      0.038810000000     0.562590000000     0.895240000000     0.0386318  
H201     H      0.000240000000     0.516080000000     0.701080000000     0.045746   
H202     H      0.017870000000     0.554570000000     0.837200000000     0.0443326  
H203     H      0.032230000000     0.557120000000     0.590640000000     0.0347129  
H204     H      0.011620000000     0.487000000000     0.872400000000    -0.0079844  
H205     H      0.084480000000     0.559030000000     0.658900000000     0.0346214  
H206     H      0.054620000000     0.572000000000     0.647250000000     0.0377046  
H207     H      0.992090000000     0.513640000000     0.765260000000     0.0458409  
H208     H      0.988310000000     0.511610000000     0.826740000000     0.0875737  
H209     H      0.062380000000     0.510640000000     0.615580000000     0.0373482  
H210     H      0.026240000000     0.513950000000     0.290690000000     0.0421493  
H211     H      0.064050000000     0.519250000000     0.172770000000     0.0383009  
H212     H      0.988950000000     0.457460000000     0.167300000000     0.0786672  
H213     H      0.046440000000     0.458990000000     0.378080000000     0.0383212  
H214     H      0.046320000000     0.530020000000     0.123190000000     0.0365802  
H215     H      0.987050000000     0.464280000000     0.330320000000     0.0377536  
H216     H      0.065200000000     0.485930000000     0.325500000000     0.0370019  
H217     H      0.989830000000     0.469720000000     0.397380000000     0.0404938  
H218     H      0.025100000000     0.520010000000     0.225710000000     0.0462815  
H219     H      0.066510000000     0.519370000000     0.104580000000     0.0465726  
H220     H      0.028570000000     0.445420000000     0.271590000000     0.0486045  
H221     H      0.057590000000     0.489610000000     0.153260000000     0.0459358  
H222     H      0.068800000000     0.490690000000     0.392130000000     0.0401119  
H223     H      0.989390000000     0.481580000000     0.117200000000    -0.00914258 
H224     H      0.010260000000     0.495790000000     0.344630000000     0.0391071  
H225     H      0.056620000000     0.508610000000     0.341530000000     0.0395134  
H226     H      0.029680000000     0.452670000000     0.206620000000     0.0465772  
H227     H      0.015280000000     0.454560000000     0.150800000000     0.0881121  
H228     H      0.996320000000     0.445690000000     0.381820000000     0.0366417  
H229     H      0.936960000000     0.581140000000     0.006230000000     0.0438299  
H230     H      0.863270000000     0.571830000000     0.087310000000     0.0389795  
H231     H      0.928570000000     0.644580000000     0.091500000000     0.0783958  
H232     H      0.954240000000     0.515040000000     0.061410000000     0.0428064  
H233     H      0.846670000000     0.598570000000     0.072020000000     0.0374042  
H234     H      0.990690000000     0.596620000000     0.055220000000     0.0378902  
H235     H      0.922790000000     0.526130000000     0.045500000000     0.0396516  
H236     H      0.014910000000     0.578240000000     0.024700000000     0.0409471  
H237     H      0.911300000000     0.601050000000     0.019400000000     0.0479916  
H238     H      0.837990000000     0.589350000000     0.117890000000     0.0419281  
H239     H      0.942330000000     0.569890000000     0.119840000000     0.0481001  
H240     H      0.875660000000     0.587250000000     0.129890000000     0.0423771  
H241     H      0.947190000000     0.508000000000     0.014560000000     0.0496439  
H242     H      0.896510000000     0.654390000000     0.076460000000    -0.00738905 
H243     H      0.978790000000     0.583410000000     0.011300000000     0.0402193  
H244     H      0.939820000000     0.542980000000     0.005710000000     0.0419721  
H245     H      0.916930000000     0.590060000000     0.133040000000     0.0448301  
H246     H      0.912940000000     0.628230000000     0.132230000000     0.086401   
H247     H      0.003210000000     0.565950000000     0.068770000000     0.0385308  
H248     H      0.432990000000     0.194670000000     0.937000000000     0.0468787  
H249     H      0.373710000000     0.137120000000     0.809930000000     0.0400566  
H250     H      0.424490000000     0.215460000000     0.827350000000     0.0815194  
H251     H      0.382200000000     0.207800000000     0.025020000000     0.0393759  
H252     H      0.401530000000     0.152700000000     0.758030000000     0.0366696  
H253     H      0.413160000000     0.160920000000     0.986170000000     0.0363436  
H254     H      0.362050000000     0.188470000000     0.969870000000     0.0391927  
H255     H      0.404280000000     0.157820000000     0.052640000000     0.0392901  
H256     H      0.437370000000     0.192310000000     0.871780000000     0.0491551  
H257     H      0.370290000000     0.145570000000     0.744690000000     0.0484749  
H258     H      0.351310000000     0.152820000000     0.925580000000     0.0443173  
H259     H      0.362890000000     0.159550000000     0.802320000000     0.0480733  
H260     H      0.351330000000     0.182340000000     0.036300000000     0.048906   
H261     H      0.435640000000     0.203820000000     0.770440000000    -0.00789083 
H262     H      0.379970000000     0.141650000000     0.996840000000     0.0430813  
H263     H      0.350820000000     0.156900000000     0.987010000000     0.042621   
H264     H      0.355560000000     0.152970000000     0.861280000000     0.0453075  
H265     H      0.392450000000     0.204900000000     0.812770000000     0.0875966  
H266     H      0.420940000000     0.189520000000     0.035420000000     0.0390622  
H267     H      0.366120000000     0.234720000000     0.360530000000     0.0454487  
H268     H      0.327000000000     0.184690000000     0.488830000000     0.0426122  
H269     H      0.403140000000     0.244750000000     0.479660000000     0.0814326  
H270     H      0.337610000000     0.163760000000     0.275110000000     0.0402823  
H271     H      0.335490000000     0.214210000000     0.537990000000     0.0379886  
H272     H      0.407620000000     0.207290000000     0.334900000000     0.0370512  
H273     H      0.330370000000     0.186810000000     0.321320000000     0.0405283  
H274     H      0.413100000000     0.208810000000     0.267530000000     0.0398769  
H275     H      0.363420000000     0.242460000000     0.424630000000     0.0500164  
H276     H      0.331020000000     0.184960000000     0.555800000000     0.0492192  
H277     H      0.369900000000     0.167860000000     0.387190000000     0.0476799  
H278     H      0.352130000000     0.179130000000     0.503750000000     0.0489257  
H279     H      0.336310000000     0.189440000000     0.253870000000     0.0498489  
H280     H      0.383430000000     0.252450000000     0.531700000000    -0.00803271 
H281     H      0.399400000000     0.228500000000     0.312630000000     0.0425224  
H282     H      0.355240000000     0.216820000000     0.304660000000     0.0433912  
H283     H      0.369370000000     0.176770000000     0.451260000000     0.0468495  
H284     H      0.397560000000     0.214970000000     0.497890000000     0.0849907  
H285     H      0.392840000000     0.177810000000     0.285610000000     0.0378809  
H286     H      0.463730000000     0.130280000000     0.461150000000     0.0468556  
H287     H      0.478400000000     0.184100000000     0.575630000000     0.0400947  
H288     H      0.410480000000     0.113240000000     0.572870000000     0.0799965  
H289     H      0.519380000000     0.110300000000     0.423130000000     0.0366734  
H290     H      0.456340000000     0.181730000000     0.630770000000     0.0384405  
H291     H      0.452100000000     0.068920000000     0.481050000000     0.0380167  
H292     H      0.524020000000     0.135970000000     0.475870000000     0.0366696  
H293     H      0.470750000000     0.043600000000     0.457040000000     0.0444548  
H294     H      0.446250000000     0.149170000000     0.502400000000     0.0445974  
H295     H      0.454710000000     0.204280000000     0.601500000000     0.0499221  
H296     H      0.489420000000     0.104860000000     0.551920000000     0.0422743  
H297     H      0.452190000000     0.180210000000     0.548140000000     0.0453301  
H298     H      0.543850000000     0.111630000000     0.451890000000     0.0402621  
H299     H      0.408500000000     0.132340000000     0.628420000000    -0.00895116 
H300     H      0.477390000000     0.071000000000     0.509040000000     0.0398211  
H301     H      0.520440000000     0.111170000000     0.505980000000     0.0393568  
H302     H      0.471750000000     0.123550000000     0.593160000000     0.0478701  
H303     H      0.413000000000     0.139110000000     0.546260000000     0.0853286  
H304     H      0.473590000000     0.067690000000     0.426480000000     0.0388057  
H305     H      0.129370000000     0.421560000000     0.871310000000     0.0417499  
H306     H      0.054620000000     0.419200000000     0.942570000000     0.0400812  
H307     H      0.123230000000     0.489200000000     0.949780000000     0.0788096  
H308     H      0.145570000000     0.357850000000     0.938750000000     0.0376663  
H309     H      0.043510000000     0.450410000000     0.925190000000     0.0387329  
H310     H      0.181660000000     0.438810000000     0.921290000000     0.0380908  
H311     H      0.114130000000     0.367620000000     0.917970000000     0.0363575  
H312     H      0.206080000000     0.418820000000     0.895750000000     0.04219    
H313     H      0.104760000000     0.443210000000     0.879440000000     0.0470791  
H314     H      0.030750000000     0.438990000000     0.969150000000     0.0499332  
H315     H      0.131500000000     0.413460000000     0.986410000000     0.0479397  
H316     H      0.066260000000     0.433640000000     0.985960000000     0.0459001  
H317     H      0.138980000000     0.348010000000     0.892660000000     0.038784   
H318     H      0.092490000000     0.500720000000     0.931700000000    -0.00967665 
H319     H      0.169840000000     0.422710000000     0.878950000000     0.0377941  
H320     H      0.131250000000     0.382020000000     0.877060000000     0.0376101  
H321     H      0.106730000000     0.434850000000     0.994550000000     0.045759   
H322     H      0.105990000000     0.473720000000     0.990120000000     0.0864702  
H323     H      0.195000000000     0.409930000000     0.941020000000     0.041914   
H324     H      0.277570000000     0.293710000000     0.762860000000     0.0428654  
H325     H      0.359080000000     0.288760000000     0.730950000000     0.0403641  
H326     H      0.290880000000     0.218150000000     0.734950000000     0.0814682  
H327     H      0.292570000000     0.327880000000     0.890210000000     0.042396   
H328     H      0.356720000000     0.267800000000     0.674740000000     0.0384569  
H329     H      0.246930000000     0.258690000000     0.838620000000     0.0385854  
H330     H      0.313710000000     0.330690000000     0.833410000000     0.0379443  
H331     H      0.223120000000     0.277830000000     0.866810000000     0.0413579  
H332     H      0.295640000000     0.277150000000     0.718680000000     0.0487526  
H333     H      0.381500000000     0.268460000000     0.701850000000     0.0513542  
H334     H      0.309910000000     0.271500000000     0.849140000000     0.0488976  
H335     H      0.358030000000     0.263320000000     0.757100000000     0.0478437  
H336     H      0.290970000000     0.350830000000     0.861730000000     0.0456264  
H337     H      0.309970000000     0.218870000000     0.677770000000    -0.00747762 
H338     H      0.246560000000     0.282820000000     0.810920000000     0.0396754  
H339     H      0.286270000000     0.325680000000     0.807890000000     0.0395446  
H340     H      0.327910000000     0.254870000000     0.804980000000     0.0464394  
H341     H      0.318270000000     0.222380000000     0.759740000000     0.086826   
H342     H      0.249400000000     0.281450000000     0.893550000000     0.0396276  
H343     H      0.513340000000     0.514370000000     0.767160000000     0.0425283  
H344     H      0.521710000000     0.468320000000     0.643460000000     0.0374595  
H345     H      0.555990000000     0.547550000000     0.658510000000     0.0781555  
H346     H      0.554200000000     0.477780000000     0.861620000000     0.0389913  
H347     H      0.549170000000     0.487350000000     0.592230000000     0.0354535  
H348     H      0.490420000000     0.469690000000     0.807620000000     0.036856   
H349     H      0.571130000000     0.507140000000     0.811030000000     0.0395755  
H350     H      0.488800000000     0.472770000000     0.874800000000     0.0415744  
H351     H      0.516780000000     0.522060000000     0.703250000000     0.0446174  
H352     H      0.516700000000     0.473550000000     0.577910000000     0.0387614  
H353     H      0.553180000000     0.472600000000     0.756650000000     0.0471084  
H354     H      0.504100000000     0.484330000000     0.634770000000     0.043696   
H355     H      0.570540000000     0.509900000000     0.877670000000     0.0492439  
H356     H      0.571830000000     0.543880000000     0.601220000000    -0.0110685  
H357     H      0.507650000000     0.501850000000     0.824230000000     0.0404907  
H358     H      0.555320000000     0.523960000000     0.825600000000     0.0464063  
H359     H      0.558940000000     0.482630000000     0.692110000000     0.0462795  
H360     H      0.523330000000     0.529280000000     0.643880000000     0.084403   
H361     H      0.502840000000     0.454480000000     0.860140000000     0.0369233  
H362     H      0.507660000000     0.557270000000     0.259920000000     0.0462075  
H363     H      0.572800000000     0.571490000000     0.139490000000     0.0377813  
H364     H      0.492060000000     0.531040000000     0.141770000000     0.0806937  
H365     H      0.499640000000     0.498110000000     0.350430000000     0.0366036  
H366     H      0.557200000000     0.584980000000     0.088450000000     0.0359303  
H367     H      0.547050000000     0.573540000000     0.305350000000     0.0354271  
H368     H      0.514360000000     0.494260000000     0.292390000000     0.0366869  
H369     H      0.554300000000     0.569450000000     0.370710000000     0.0384596  
H370     H      0.510840000000     0.566520000000     0.195190000000     0.0481177  
H371     H      0.572400000000     0.568140000000     0.072400000000     0.0441087  
H372     H      0.551730000000     0.520140000000     0.244940000000     0.0412645  
H373     H      0.556200000000     0.539120000000     0.123660000000     0.0420356  
H374     H      0.524450000000     0.490880000000     0.357880000000     0.039955   
H375     H      0.506020000000     0.559610000000     0.090160000000    -0.00863051 
H376     H      0.565630000000     0.558420000000     0.313060000000     0.0394895  
H377     H      0.547310000000     0.513470000000     0.305230000000     0.03738    
H378     H      0.552700000000     0.527050000000     0.180850000000     0.0420806  
H379     H      0.508560000000     0.515210000000     0.125890000000     0.0827435  
H380     H      0.521420000000     0.555070000000     0.358220000000     0.0388079  
H381     H      0.833910000000     0.178250000000     0.901570000000     0.0441471  
H382     H      0.875040000000     0.177180000000     0.013820000000     0.0368268  
H383     H      0.858560000000     0.236580000000     0.023700000000     0.0780585  
H384     H      0.904900000000     0.222910000000     0.806620000000     0.0385718  
H385     H      0.849310000000     0.165340000000     0.066180000000     0.0349719  
H386     H      0.847430000000     0.229650000000     0.858780000000     0.0417172  
H387     H      0.896260000000     0.198530000000     0.861900000000     0.0363529  
H388     H      0.840360000000     0.220700000000     0.792730000000     0.0514153  
H389     H      0.829750000000     0.174520000000     0.967170000000     0.0466917  
H390     H      0.881330000000     0.178320000000     0.081590000000     0.0382953  
H391     H      0.906910000000     0.245850000000     0.912940000000     0.0483552  
H392     H      0.898160000000     0.207480000000     0.031760000000     0.0432017  
H393     H      0.890390000000     0.189810000000     0.796010000000     0.0408293  
H394     H      0.838730000000     0.213640000000     0.076190000000    -0.00877108 
H395     H      0.834370000000     0.196650000000     0.847730000000     0.0432395  
H396     H      0.863360000000     0.178230000000     0.849760000000     0.04049    
H397     H      0.903500000000     0.241140000000     0.978600000000     0.0457889  
H398     H      0.889240000000     0.241150000000     0.036060000000     0.087595   
H399     H      0.872750000000     0.242680000000     0.804240000000     0.0433209  
H400     H      0.784720000000     0.120820000000     0.411380000000     0.046002   
H401     H      0.795550000000     0.164960000000     0.523120000000     0.039271   
H402     H      0.846010000000     0.136120000000     0.521390000000     0.0750172  
H403     H      0.796540000000     0.165880000000     0.310900000000     0.0357364  
H404     H      0.815580000000     0.181800000000     0.577660000000     0.0413086  
H405     H      0.831970000000     0.128320000000     0.360170000000     0.0368962  
H406     H      0.812190000000     0.185690000000     0.368670000000     0.0366077  
H407     H      0.842430000000     0.138600000000     0.294940000000     0.0391349  
H408     H      0.786380000000     0.119530000000     0.477350000000     0.0439449  
H409     H      0.788680000000     0.152850000000     0.591480000000     0.0486085  
H410     H      0.859400000000     0.186990000000     0.410260000000     0.0422344  
H411     H      0.785300000000     0.132850000000     0.535990000000     0.0424375  
H412     H      0.823120000000     0.196900000000     0.303660000000     0.0411249  
H413     H      0.859160000000     0.158700000000     0.575250000000    -0.00633663 
H414     H      0.855950000000     0.160840000000     0.352480000000     0.039344   
H415     H      0.844430000000     0.194370000000     0.357270000000     0.0387685  
H416     H      0.860320000000     0.186670000000     0.476210000000     0.0475597  
H417     H      0.813460000000     0.116920000000     0.535190000000     0.087374   
H418     H      0.809460000000     0.126600000000     0.305400000000     0.037178   
H419     H      0.223360000000     0.353580000000     0.643540000000     0.0475515  
H420     H      0.177750000000     0.391150000000     0.560200000000     0.036702   
H421     H      0.150410000000     0.312120000000     0.559480000000     0.0835381  
H422     H      0.241870000000     0.372200000000     0.750980000000     0.0376051  
H423     H      0.143920000000     0.371250000000     0.515360000000     0.0369682  
H424     H      0.171910000000     0.312450000000     0.710370000000     0.0379633  
H425     H      0.225580000000     0.390890000000     0.708770000000     0.0356638  
H426     H      0.176740000000     0.311530000000     0.777340000000     0.0404689  
H427     H      0.208600000000     0.354540000000     0.582380000000     0.0461901  
H428     H      0.173790000000     0.391320000000     0.493370000000     0.0403806  
H429     H      0.158130000000     0.354640000000     0.687270000000     0.0416776  
H430     H      0.196630000000     0.379950000000     0.537790000000     0.042108   
H431     H      0.231110000000     0.390350000000     0.775830000000     0.0390841  
H432     H      0.127010000000     0.322090000000     0.515320000000    -0.00829622 
H433     H      0.165200000000     0.334060000000     0.734650000000     0.0383984  
H434     H      0.196330000000     0.379620000000     0.733480000000     0.0383864  
H435     H      0.142490000000     0.353890000000     0.626060000000     0.0464226  
H436     H      0.180100000000     0.332460000000     0.536920000000     0.0863109  
H437     H      0.204650000000     0.318230000000     0.752360000000     0.0362113  
H438     H      0.198670000000     0.318770000000     0.180140000000     0.043241   
H439     H      0.183820000000     0.323000000000     0.062450000000     0.0363692  
H440     H      0.262750000000     0.376590000000     0.059680000000     0.0810391  
H441     H      0.223440000000     0.401000000000     0.264810000000     0.0407036  
H442     H      0.202750000000     0.310460000000     0.014840000000     0.0364486  
H443     H      0.231460000000     0.339060000000     0.232140000000     0.0401997  
H444     H      0.201010000000     0.386760000000     0.207820000000     0.0374139  
H445     H      0.219260000000     0.337640000000     0.296920000000     0.0503568  
H446     H      0.202780000000     0.313030000000     0.116350000000     0.0461797  
H447     H      0.182380000000     0.321050000000     0.995960000000     0.0381607  
H448     H      0.238780000000     0.399790000000     0.165140000000     0.0471442  
H449     H      0.194790000000     0.353700000000     0.042740000000     0.0431545  
H450     H      0.189790000000     0.386670000000     0.272510000000     0.0467545  
H451     H      0.255470000000     0.347650000000     0.011050000000    -0.00819062 
H452     H      0.197940000000     0.327610000000     0.239000000000     0.040988   
H453     H      0.180470000000     0.355300000000     0.224660000000     0.0430874  
H454     H      0.240350000000     0.393920000000     0.100700000000     0.046132   
H455     H      0.240130000000     0.384780000000     0.041550000000     0.083688   
H456     H      0.242970000000     0.368310000000     0.281690000000     0.0430878  
H457     H      0.974530000000     0.246710000000     0.315960000000     0.0424075  
H458     H      0.066570000000     0.261460000000     0.326990000000     0.0397021  
H459     H      0.062510000000     0.328750000000     0.325760000000     0.079567   
H460     H      0.945310000000     0.212320000000     0.188950000000     0.0390911  
H461     H      0.089820000000     0.285070000000     0.379350000000     0.0440191  
H462     H      0.966690000000     0.279350000000     0.248470000000     0.0393024  
H463     H      0.969910000000     0.211720000000     0.239860000000     0.0368517  
H464     H      0.921120000000     0.256380000000     0.228910000000     0.046042   
H465     H      0.013590000000     0.266880000000     0.352150000000     0.0483765  
H466     H      0.111990000000     0.285830000000     0.346780000000     0.0460568  
H467     H      0.019220000000     0.272280000000     0.218830000000     0.0479876  
H468     H      0.086680000000     0.286770000000     0.296780000000     0.0419515  
H469     H      0.924490000000     0.188220000000     0.219850000000     0.0402474  
H470     H      0.087620000000     0.332510000000     0.377910000000    -0.00712029 
H471     H      0.946460000000     0.252800000000     0.276800000000     0.0390591  
H472     H      0.948340000000     0.213290000000     0.271730000000     0.0387838  
H473     H      0.058280000000     0.292070000000     0.254970000000     0.0441006  
H474     H      0.084090000000     0.325600000000     0.295790000000     0.0841365  
H475     H      0.942960000000     0.258140000000     0.194980000000     0.044699   
H476     H      0.377320000000     0.459920000000     0.513680000000     0.0426466  
H477     H      0.299750000000     0.455730000000     0.439920000000     0.0370665  
H478     H      0.302860000000     0.388110000000     0.448610000000     0.0805748  
H479     H      0.456690000000     0.519980000000     0.443700000000     0.0383933  
H480     H      0.258510000000     0.423910000000     0.461380000000     0.0328186  
H481     H      0.407520000000     0.437880000000     0.458150000000     0.0382447  
H482     H      0.416890000000     0.511150000000     0.468210000000     0.0368002  
H483     H      0.452850000000     0.454950000000     0.478790000000     0.0401762  
H484     H      0.330760000000     0.437750000000     0.508730000000     0.0467399  
H485     H      0.255550000000     0.431520000000     0.415660000000     0.0405886  
H486     H      0.383390000000     0.462710000000     0.397930000000     0.047657   
H487     H      0.297030000000     0.437870000000     0.399830000000     0.0420087  
H488     H      0.462280000000     0.527070000000     0.490660000000     0.0431432  
H489     H      0.260420000000     0.376860000000     0.466610000000    -0.00829426 
H490     H      0.415040000000     0.453720000000     0.501100000000     0.0395024  
H491     H      0.419970000000     0.495090000000     0.506940000000     0.0387755  
H492     H      0.336960000000     0.440290000000     0.392920000000     0.0443824  
H493     H      0.299250000000     0.398790000000     0.404900000000     0.0851867  
H494     H      0.449020000000     0.464430000000     0.434660000000     0.0383101  
H495     H      0.580090000000     0.093380000000     0.663570000000     0.0433635  
H496     H      0.585820000000     0.042830000000     0.784200000000     0.0384222  
H497     H      0.552080000000     0.089110000000     0.781390000000     0.0680497  
H498     H      0.531020000000     0.008910000000     0.581000000000     0.0386046  
H499     H      0.561650000000     0.029300000000     0.836730000000     0.0415618  
H500     H      0.599150000000     0.073930000000     0.616740000000     0.0379981  
H501     H      0.520050000000     0.025300000000     0.632860000000     0.0357832  
H502     H      0.591250000000     0.073960000000     0.549690000000     0.0403964  
H503     H      0.583170000000     0.099910000000     0.727770000000     0.0465277  
H504     H      0.592310000000     0.052390000000     0.852710000000     0.0402774  
H505     H      0.545010000000     0.012740000000     0.679700000000     0.045888   
H506     H      0.603090000000     0.075480000000     0.797220000000     0.0522168  
H507     H      0.512840000000     0.023200000000     0.566490000000     0.0383808  
H508     H      0.543630000000     0.082280000000     0.840790000000    -0.00414406 
H509     H      0.576780000000     0.083960000000     0.604040000000     0.0382602  
H510     H      0.531770000000     0.056000000000     0.612740000000     0.0397213  
H511     H      0.545740000000     0.019140000000     0.744900000000     0.0470763  
H512     H      0.585670000000     0.102310000000     0.788120000000     0.0913005  
H513     H      0.586850000000     0.044810000000     0.567600000000     0.0367704  
H514     H      0.473870000000     0.015290000000     0.176290000000     0.0464704  
H515     H      0.553290000000     0.058060000000     0.266050000000     0.0367875  
H516     H      0.495650000000     0.981840000000     0.281100000000     0.0792574  
H517     H      0.482230000000     0.035200000000     0.072060000000     0.0379832  
H518     H      0.566580000000     0.042740000000     0.316880000000     0.0338708  
H519     H      0.497790000000     0.980240000000     0.110030000000     0.0380476  
H520     H      0.509650000000     0.054450000000     0.124200000000     0.0382163  
H521     H      0.501830000000     0.986530000000     0.043020000000     0.0460674  
H522     H      0.483920000000     0.017640000000     0.240380000000     0.0442171  
H523     H      0.557180000000     0.064680000000     0.332660000000     0.038026   
H524     H      0.545370000000     0.019990000000     0.150570000000     0.0427502  
H525     H      0.523740000000     0.050920000000     0.287260000000     0.0424804  
H526     H      0.512350000000     0.061200000000     0.058160000000     0.0487304  
H527     H      0.525480000000     0.989750000000     0.328740000000    -0.0120125  
H528     H      0.527810000000     0.006690000000     0.095990000000     0.040197   
H529     H      0.534770000000     0.050720000000     0.104550000000     0.0459063  
H530     H      0.554370000000     0.020010000000     0.214740000000     0.0454651  
H531     H      0.490490000000     0.007100000000     0.295800000000     0.0842154  
H532     H      0.475480000000     0.988150000000     0.061920000000     0.0397541  
H533     H      0.734640000000     0.136780000000     0.061570000000     0.0438677  
H534     H      0.648170000000     0.062250000000     0.020400000000     0.0376757  
H535     H      0.646210000000     0.129770000000     0.038950000000     0.0815944  
H536     H      0.751960000000     0.109200000000     0.181910000000     0.0361323  
H537     H      0.630450000000     0.070160000000     0.966890000000     0.0378304  
H538     H      0.730000000000     0.160680000000     0.144240000000     0.0386872  
H539     H      0.733990000000     0.094490000000     0.122450000000     0.0365004  
H540     H      0.772210000000     0.180460000000     0.174370000000     0.0440913  
H541     H      0.700460000000     0.124570000000     0.017230000000     0.0497985  
H542     H      0.606190000000     0.043040000000     0.989980000000     0.0415312  
H543     H      0.678900000000     0.099260000000     0.145100000000     0.0459425  
H544     H      0.623530000000     0.061330000000     0.048600000000     0.0410034  
H545     H      0.776930000000     0.113820000000     0.151500000000     0.0400049  
H546     H      0.628010000000     0.115530000000     0.979890000000    -0.000523472
H547     H      0.754810000000     0.163070000000     0.114920000000     0.0427504  
H548     H      0.757070000000     0.123840000000     0.101810000000     0.0395191  
H549     H      0.644720000000     0.087190000000     0.100810000000     0.0429778  
H550     H      0.622740000000     0.100840000000     0.060000000000     0.0829443  
H551     H      0.748800000000     0.152110000000     0.196260000000     0.0361424  
H552     H      0.175830000000     0.821130000000     0.582010000000     0.0472729  
H553     H      0.252130000000     0.867390000000     0.489550000000     0.0367388  
H554     H      0.194550000000     0.887530000000     0.488120000000     0.0846529  
H555     H      0.188460000000     0.808730000000     0.687250000000     0.0366557  
H556     H      0.260400000000     0.897110000000     0.440280000000     0.0356404  
H557     H      0.184940000000     0.872930000000     0.647550000000     0.0393925  
H558     H      0.219440000000     0.827490000000     0.639800000000     0.0351309  
H559     H      0.185750000000     0.870510000000     0.715270000000     0.0422368  
H560     H      0.186060000000     0.833110000000     0.518600000000     0.0457161  
H561     H      0.252790000000     0.866700000000     0.422670000000     0.0394498  
H562     H      0.240040000000     0.892210000000     0.614350000000     0.0428623  
H563     H      0.221520000000     0.844990000000     0.471080000000     0.0415459  
H564     H      0.219480000000     0.824290000000     0.707350000000     0.0379304  
H565     H      0.224470000000     0.909380000000     0.439390000000    -0.00792101 
H566     H      0.216020000000     0.883920000000     0.666680000000     0.0392771  
H567     H      0.235860000000     0.857700000000     0.662170000000     0.0385163  
H568     H      0.249390000000     0.904830000000     0.550930000000     0.0479849  
H569     H      0.186930000000     0.857110000000     0.469980000000     0.0860716  
H570     H      0.164520000000     0.841310000000     0.693350000000     0.037421   
H571     H      0.150280000000     0.773250000000     0.101320000000     0.0478518  
H572     H      0.203860000000     0.797070000000     0.992460000000     0.0369904  
H573     H      0.167660000000     0.840790000000     0.001330000000     0.0791323  
H574     H      0.186150000000     0.781790000000     0.210110000000     0.03809    
H575     H      0.219300000000     0.823900000000     0.941020000000     0.0327475  
H576     H      0.149750000000     0.815060000000     0.155100000000     0.0400087  
H577     H      0.211150000000     0.800420000000     0.156120000000     0.0363063  
H578     H      0.153600000000     0.822210000000     0.221390000000     0.0471958  
H579     H      0.153320000000     0.779560000000     0.035870000000     0.0442333  
H580     H      0.195640000000     0.793500000000     0.925110000000     0.0395019  
H581     H      0.213250000000     0.848840000000     0.115870000000     0.0424792  
H582     H      0.171140000000     0.784050000000     0.979150000000     0.0412538  
H583     H      0.216360000000     0.808080000000     0.222630000000     0.0405008  
H584     H      0.192490000000     0.856900000000     0.947950000000    -0.00807931 
H585     H      0.180830000000     0.840200000000     0.168080000000     0.0409359  
H586     H      0.217330000000     0.831530000000     0.168810000000     0.0387026  
H587     H      0.217250000000     0.854590000000     0.050400000000     0.0473062  
H588     H      0.150570000000     0.808880000000     0.984550000000     0.0863073  
H589     H      0.146200000000     0.790770000000     0.209030000000     0.0439111  
H590     H      0.345970000000     0.946280000000     0.807450000000     0.0423716  
H591     H      0.416950000000     0.018900000000     0.890760000000     0.0383924  
H592     H      0.421310000000     0.952480000000     0.874290000000     0.0795252  
H593     H      0.261980000000     0.909480000000     0.875560000000     0.0407365  
H594     H      0.459970000000     0.032820000000     0.871490000000     0.0367414  
H595     H      0.320490000000     0.890150000000     0.851620000000     0.0368557  
H596     H      0.299850000000     0.946880000000     0.857360000000     0.037728   
H597     H      0.277490000000     0.859980000000     0.825290000000     0.0388607  
H598     H      0.391770000000     0.974660000000     0.816390000000     0.0473676  
H599     H      0.460380000000     0.040330000000     0.918270000000     0.0425594  
H600     H      0.336200000000     0.933620000000     0.922000000000     0.0470921  
H601     H      0.419850000000     0.002380000000     0.929150000000     0.0416551  
H602     H      0.256810000000     0.916100000000     0.830340000000     0.0414054  
H603     H      0.463000000000     0.987190000000     0.860640000000    -0.00980875 
H604     H      0.312610000000     0.901190000000     0.811260000000     0.0380454  
H605     H      0.300990000000     0.933660000000     0.814500000000     0.0383503  
H606     H      0.381870000000     0.962000000000     0.930980000000     0.0436814  
H607     H      0.422180000000     0.963590000000     0.919520000000     0.0840801  
H608     H      0.277440000000     0.867750000000     0.871780000000     0.0370878  
H609     H      0.815300000000     0.653840000000     0.825830000000     0.0451667  
H610     H      0.854600000000     0.694540000000     0.948090000000     0.0411776  
H611     H      0.800120000000     0.616620000000     0.948060000000     0.0740149  
H612     H      0.877850000000     0.634400000000     0.754910000000     0.0386279  
H613     H      0.857370000000     0.685040000000     0.008270000000     0.0431345  
H614     H      0.868700000000     0.695130000000     0.795120000000     0.0405463  
H615     H      0.845300000000     0.617140000000     0.800520000000     0.0377297  
H616     H      0.870230000000     0.693500000000     0.727400000000     0.0505902  
H617     H      0.803350000000     0.653660000000     0.888760000000     0.047036   
H618     H      0.836600000000     0.697820000000     0.009620000000     0.0497205  
H619     H      0.884520000000     0.656530000000     0.859940000000     0.0478259  
H620     H      0.821100000000     0.683640000000     0.949970000000     0.0476593  
H621     H      0.847720000000     0.615550000000     0.733150000000     0.0409793  
H622     H      0.808040000000     0.619830000000     0.009320000000    -0.007722   
H623     H      0.839250000000     0.672250000000     0.774250000000     0.0423584  
H624     H      0.825840000000     0.627340000000     0.777380000000     0.0414756  
H625     H      0.871790000000     0.654850000000     0.923190000000     0.0485976  
H626     H      0.790780000000     0.640300000000     0.947660000000     0.089373   
H627     H      0.893800000000     0.689250000000     0.750340000000     0.0427687  
H628     H      0.812970000000     0.651470000000     0.365970000000     0.0477595  
H629     H      0.888320000000     0.691810000000     0.446350000000     0.0427418  
H630     H      0.856870000000     0.612190000000     0.447020000000     0.0803164  
H631     H      0.828820000000     0.685580000000     0.257400000000     0.0396247  
H632     H      0.911920000000     0.681550000000     0.489450000000     0.0390692  
H633     H      0.809840000000     0.613450000000     0.299210000000     0.0374767  
H634     H      0.862310000000     0.692240000000     0.298720000000     0.0411568  
H635     H      0.803960000000     0.614350000000     0.232410000000     0.0411418  
H636     H      0.828720000000     0.650360000000     0.426380000000     0.0456881  
H637     H      0.894330000000     0.693530000000     0.512790000000     0.0507518  
H638     H      0.876650000000     0.649010000000     0.319100000000     0.0462163  
H639     H      0.858960000000     0.672750000000     0.470380000000     0.0479647  
H640     H      0.857040000000     0.693820000000     0.232140000000     0.0505314  
H641     H      0.891550000000     0.630060000000     0.490380000000    -0.00808035 
H642     H      0.839080000000     0.625330000000     0.274250000000     0.0429202  
H643     H      0.869660000000     0.671360000000     0.273680000000     0.046077   
H644     H      0.893190000000     0.649350000000     0.379560000000     0.050018   
H645     H      0.840130000000     0.625460000000     0.470250000000     0.0838434  
H646     H      0.793130000000     0.632250000000     0.257760000000     0.0377606  
H647     H      0.708020000000     0.586680000000     0.473000000000     0.0470898  
H648     H      0.747490000000     0.569270000000     0.585440000000     0.0400653  
H649     H      0.755530000000     0.642310000000     0.580160000000     0.0825192  
H650     H      0.629480000000     0.534760000000     0.443370000000     0.0362906  
H651     H      0.772790000000     0.593280000000     0.636830000000     0.0356786  
H652     H      0.662520000000     0.604270000000     0.497050000000     0.0395592  
H653     H      0.651930000000     0.530060000000     0.494480000000     0.0369539  
H654     H      0.617860000000     0.588080000000     0.477090000000     0.0448307  
H655     H      0.746320000000     0.602340000000     0.510350000000     0.0452979  
H656     H      0.792160000000     0.587540000000     0.606120000000     0.0481648  
H657     H      0.662100000000     0.568560000000     0.568830000000     0.044782   
H658     H      0.770000000000     0.591980000000     0.554050000000     0.0476472  
H659     H      0.606830000000     0.512640000000     0.474900000000     0.0403567  
H660     H      0.778570000000     0.641470000000     0.632970000000    -0.00801596 
H661     H      0.639660000000     0.580960000000     0.527490000000     0.0448161  
H662     H      0.633440000000     0.536700000000     0.526070000000     0.0406955  
H663     H      0.700440000000     0.584520000000     0.606180000000     0.0489984  
H664     H      0.774570000000     0.634950000000     0.550730000000     0.0851344  
H665     H      0.636510000000     0.582370000000     0.445000000000     0.0361035  
H666     H      0.023830000000     0.718000000000     0.786280000000     0.0478056  
H667     H      0.985210000000     0.664200000000     0.672640000000     0.0375704  
H668     H      0.996230000000     0.738400000000     0.665150000000     0.0834733  
H669     H      0.102550000000     0.743110000000     0.826840000000     0.0390452  
H670     H      0.967330000000     0.667670000000     0.615660000000     0.0370099  
H671     H      0.065920000000     0.777570000000     0.775680000000     0.0400798  
H672     H      0.086730000000     0.720760000000     0.770150000000     0.0358398  
H673     H      0.107110000000     0.807270000000     0.804570000000     0.0477058  
H674     H      0.989130000000     0.699030000000     0.742370000000     0.0438116  
H675     H      0.942150000000     0.646360000000     0.644840000000     0.0424872  
H676     H      0.078170000000     0.748100000000     0.699550000000     0.0426128  
H677     H      0.964240000000     0.671480000000     0.697780000000     0.0409413  
H678     H      0.129000000000     0.750220000000     0.797970000000     0.0402446  
H679     H      0.975160000000     0.715160000000     0.610660000000    -0.00710207 
H680     H      0.092690000000     0.783230000000     0.748030000000     0.0411555  
H681     H      0.105080000000     0.749440000000     0.744640000000     0.0382222  
H682     H      0.043540000000     0.728120000000     0.655650000000     0.0484424  
H683     H      0.970810000000     0.715640000000     0.693200000000     0.0835256  
H684     H      0.088490000000     0.779140000000     0.830670000000     0.0447475  
N1       N      0.798670000000     0.111750000000     0.733730000000    -0.207939   
N2       N      0.765310000000     0.059380000000     0.745160000000    -0.103545   
N3       N      0.709320000000     0.953210000000     0.719930000000    -0.112274   
N4       N      0.686110000000     0.900140000000     0.725710000000    -0.179775   
N5       N      0.889530000000     0.244720000000     0.650450000000    -0.207572   
N6       N      0.921430000000     0.290840000000     0.614640000000    -0.103502   
N7       N      0.983920000000     0.394320000000     0.576110000000    -0.112343   
N8       N      0.007630000000     0.441710000000     0.541300000000    -0.180802   
N9       N      0.169750000000     0.780040000000     0.369760000000    -0.208483   
N10      N      0.145760000000     0.731030000000     0.400530000000    -0.103953   
N11      N      0.096630000000     0.624370000000     0.422120000000    -0.112847   
N12      N      0.073000000000     0.575040000000     0.450990000000    -0.18112    
N13      N      0.553760000000     0.584790000000     0.927200000000    -0.208      
N14      N      0.569560000000     0.630170000000     0.888180000000    -0.103693   
N15      N      0.603120000000     0.705960000000     0.778990000000    -0.112525   
N16      N      0.624630000000     0.753690000000     0.745230000000    -0.179399   
N17      N      0.340960000000     0.111940000000     0.171200000000    -0.206632   
N18      N      0.315180000000     0.062960000000     0.200420000000    -0.103127   
N19      N      0.262620000000     0.958160000000     0.236820000000    -0.112385   
N20      N      0.238140000000     0.910940000000     0.272220000000    -0.17927    
N21      N      0.415260000000     0.257420000000     0.134640000000    -0.206527   
N22      N      0.441650000000     0.305870000000     0.103870000000    -0.103107   
N23      N      0.489330000000     0.409500000000     0.062500000000    -0.112133   
N24      N      0.507000000000     0.455410000000     0.024670000000    -0.178589   
N25      N      0.659990000000     0.822860000000     0.631340000000    -0.207038   
N26      N      0.663930000000     0.824690000000     0.555480000000    -0.103323   
N27      N      0.663880000000     0.807680000000     0.404260000000    -0.112675   
N28      N      0.661370000000     0.811820000000     0.328870000000    -0.179738   
N29      N      0.647870000000     0.859040000000     0.138850000000    -0.209877   
N30      N      0.645100000000     0.859220000000     0.062800000000    -0.104033   
N31      N      0.645950000000     0.832470000000     0.915720000000    -0.11265    
N32      N      0.649940000000     0.830260000000     0.840330000000    -0.18069    
N33      N      0.777790000000     0.685220000000     0.136570000000    -0.20581    
N34      N      0.746260000000     0.705150000000     0.155360000000    -0.103282   
N35      N      0.692860000000     0.759450000000     0.162030000000    -0.1125     
N36      N      0.675350000000     0.791910000000     0.186190000000    -0.179708   
N37      N      0.633650000000     0.879850000000     0.280330000000    -0.208063   
N38      N      0.619690000000     0.912130000000     0.315750000000    -0.103763   
N39      N      0.594660000000     0.965680000000     0.418480000000    -0.113083   
N40      N      0.575020000000     0.994880000000     0.448230000000    -0.180531   
N41      N      0.019500000000     0.522240000000     0.893960000000    -0.205143   
N42      N      0.028340000000     0.527630000000     0.819730000000    -0.101938   
N43      N      0.044580000000     0.535320000000     0.667330000000    -0.110629   
N44      N      0.050550000000     0.535070000000     0.593360000000    -0.180158   
N45      N      0.026560000000     0.494330000000     0.097650000000    -0.205115   
N46      N      0.025080000000     0.490610000000     0.173130000000    -0.103053   
N47      N      0.025580000000     0.473280000000     0.324150000000    -0.112524   
N48      N      0.029080000000     0.478750000000     0.399620000000    -0.181248   
N49      N      0.866620000000     0.628080000000     0.109540000000    -0.206647   
N50      N      0.896420000000     0.608120000000     0.083450000000    -0.103167   
N51      N      0.955980000000     0.561510000000     0.055710000000    -0.112063   
N52      N      0.983750000000     0.540030000000     0.026740000000    -0.178479   
N53      N      0.398560000000     0.185230000000     0.748210000000    -0.208644   
N54      N      0.400980000000     0.175380000000     0.822270000000    -0.102495   
N55      N      0.390560000000     0.178010000000     0.975010000000    -0.111182   
N56      N      0.382760000000     0.176900000000     0.049760000000    -0.178806   
N57      N      0.369610000000     0.216490000000     0.555970000000    -0.208865   
N58      N      0.364390000000     0.215610000000     0.480280000000    -0.103118   
N59      N      0.367920000000     0.194020000000     0.331560000000    -0.111835   
N60      N      0.373280000000     0.192680000000     0.256530000000    -0.178679   
N61      N      0.419770000000     0.169050000000     0.608890000000    -0.206159   
N62      N      0.446260000000     0.147040000000     0.576220000000    -0.103542   
N63      N      0.486620000000     0.104200000000     0.478200000000    -0.112967   
N64      N      0.508370000000     0.076120000000     0.450980000000    -0.180378   
N65      N      0.062490000000     0.476980000000     0.966730000000    -0.206039   
N66      N      0.089790000000     0.453800000000     0.941050000000    -0.103548   
N67      N      0.147180000000     0.403620000000     0.925030000000    -0.11224    
N68      N      0.175330000000     0.380800000000     0.902940000000    -0.180036   
N69      N      0.347610000000     0.232030000000     0.695790000000    -0.205642   
N70      N      0.323090000000     0.255040000000     0.731510000000    -0.103302   
N71      N      0.282150000000     0.293280000000     0.836300000000    -0.112415   
N72      N      0.255920000000     0.315410000000     0.868870000000    -0.179449   
N73      N      0.538000000000     0.514150000000     0.579050000000    -0.207853   
N74      N      0.541990000000     0.507990000000     0.653910000000    -0.103009   
N75      N      0.530780000000     0.486770000000     0.805320000000    -0.112309   
N76      N      0.529550000000     0.490260000000     0.880950000000    -0.179766   
N77      N      0.531330000000     0.548520000000     0.068800000000    -0.210064   
N78      N      0.532470000000     0.552930000000     0.144620000000    -0.103729   
N79      N      0.527360000000     0.533680000000     0.296280000000    -0.111795   
N80      N      0.533510000000     0.528870000000     0.370580000000    -0.180553   
N81      N      0.864210000000     0.201090000000     0.091290000000    -0.206459   
N82      N      0.862770000000     0.204310000000     0.016280000000    -0.10304    
N83      N      0.873550000000     0.216110000000     0.863810000000    -0.112332   
N84      N      0.866770000000     0.206740000000     0.789160000000    -0.17931    
N85      N      0.824270000000     0.153850000000     0.594900000000    -0.204197   
N86      N      0.824370000000     0.154820000000     0.520500000000    -0.102719   
N87      N      0.819350000000     0.154900000000     0.367300000000    -0.112791   
N88      N      0.829520000000     0.165690000000     0.293370000000    -0.181251   
N89      N      0.158930000000     0.351050000000     0.488330000000    -0.209168   
N90      N      0.163260000000     0.351480000000     0.564180000000    -0.103449   
N91      N      0.200280000000     0.351240000000     0.705360000000    -0.112447   
N92      N      0.207960000000     0.349930000000     0.780170000000    -0.180496   
N93      N      0.222620000000     0.346030000000     0.988900000000    -0.208641   
N94      N      0.223950000000     0.347980000000     0.065260000000    -0.102524   
N95      N      0.219070000000     0.364830000000     0.216530000000    -0.111508   
N96      N      0.207140000000     0.365200000000     0.290050000000    -0.17795    
N97      N      0.111860000000     0.320780000000     0.354590000000    -0.206103   
N98      N      0.061230000000     0.293340000000     0.328760000000    -0.103225   
N99      N      0.971550000000     0.247340000000     0.242270000000    -0.112294   
N100     N      0.920860000000     0.221610000000     0.217210000000    -0.179082   
N101     N      0.252010000000     0.394910000000     0.424460000000    -0.208146   
N102     N      0.302960000000     0.423000000000     0.448870000000    -0.103797   
N103     N      0.411050000000     0.474400000000     0.457490000000    -0.112118   
N104     N      0.462720000000     0.493810000000     0.473270000000    -0.179301   
N105     N      0.564390000000     0.063780000000     0.853800000000    -0.203145   
N106     N      0.564740000000     0.062350000000     0.780680000000    -0.0999314  
N107     N      0.560430000000     0.047230000000     0.628110000000    -0.111878   
N108     N      0.552540000000     0.043480000000     0.553180000000    -0.181136   
N109     N      0.531820000000     0.025570000000     0.345480000000    -0.208794   
N110     N      0.526220000000     0.018820000000     0.270080000000    -0.10358    
N111     N      0.501960000000     0.016410000000     0.120990000000    -0.112893   
N112     N      0.505740000000     0.023710000000     0.045880000000    -0.179224   
N113     N      0.603310000000     0.076970000000     0.992400000000    -0.20718    
N114     N      0.650650000000     0.097930000000     0.028530000000    -0.103243   
N115     N      0.728700000000     0.125760000000     0.133740000000    -0.11292    
N116     N      0.776490000000     0.147500000000     0.168170000000    -0.180612   
N117     N      0.223770000000     0.877220000000     0.416820000000    -0.209429   
N118     N      0.224150000000     0.878600000000     0.493050000000    -0.103365   
N119     N      0.199690000000     0.848100000000     0.639890000000    -0.112302   
N120     N      0.197020000000     0.842150000000     0.715450000000    -0.180253   
N121     N      0.185350000000     0.822480000000     0.924120000000    -0.207156   
N122     N      0.189040000000     0.821860000000     0.999770000000    -0.103489   
N123     N      0.179150000000     0.805770000000     0.151920000000    -0.112546   
N124     N      0.183990000000     0.813700000000     0.227140000000    -0.178895   
N125     N      0.467650000000     0.009930000000     0.906210000000    -0.208201   
N126     N      0.417550000000     0.985240000000     0.877940000000    -0.103612   
N127     N      0.311220000000     0.919120000000     0.860030000000    -0.112225   
N128     N      0.261800000000     0.883910000000     0.837010000000    -0.180016   
N129     N      0.818870000000     0.658090000000     0.019020000000    -0.202977   
N130     N      0.830840000000     0.654470000000     0.948300000000    -0.102212   
N131     N      0.859550000000     0.656830000000     0.801610000000    -0.112172   
N132     N      0.864850000000     0.655800000000     0.726430000000    -0.178591   
N133     N      0.880360000000     0.653330000000     0.517920000000    -0.208194   
N134     N      0.873730000000     0.652090000000     0.442400000000    -0.103317   
N135     N      0.834690000000     0.653170000000     0.303200000000    -0.112154   
N136     N      0.826960000000     0.654860000000     0.228590000000    -0.178801   
N137     N      0.799190000000     0.625970000000     0.608360000000    -0.207532   
N138     N      0.748280000000     0.604510000000     0.584150000000    -0.103467   
N139     N      0.660380000000     0.568370000000     0.495030000000    -0.112758   
N140     N      0.609690000000     0.549370000000     0.472370000000    -0.180414   
N141     N      0.945450000000     0.683010000000     0.636390000000    -0.209042   
N142     N      0.993960000000     0.702520000000     0.668710000000    -0.103588   
N143     N      0.073170000000     0.746850000000     0.773160000000    -0.112522   
N144     N      0.120280000000     0.780200000000     0.805670000000    -0.178801   
O1       O      0.873480000000     0.634400000000     0.573530000000    -0.514447   
O2       O      0.865180000000     0.635350000000     0.674740000000    -0.555739   
O3       O      0.833990000000     0.621190000000     0.617580000000    -0.551886   
O4       O      0.905080000000     0.648810000000     0.630750000000    -0.556515   
O5       O      0.910600000000     0.687630000000     0.626540000000    -0.515699   
O6       O      0.839650000000     0.660090000000     0.613850000000    -0.513434   
O7       O      0.871240000000     0.674460000000     0.670800000000    -0.548735   
O8       O      0.879410000000     0.673420000000     0.569620000000    -0.552514   
O9       O      0.188670000000     0.852040000000     0.771600000000    -0.556175   
O10      O      0.181640000000     0.841490000000     0.872760000000    -0.520308   
O11      O      0.219800000000     0.872260000000     0.828900000000    -0.553524   
O12      O      0.150850000000     0.821490000000     0.815610000000    -0.548473   
O13      O      0.162580000000     0.792320000000     0.810740000000    -0.554262   
O14      O      0.231470000000     0.843030000000     0.824120000000    -0.557807   
O15      O      0.193650000000     0.812530000000     0.867930000000    -0.558763   
O16      O      0.200770000000     0.823130000000     0.766730000000    -0.555018   
O17      O      0.551420000000     0.036160000000     0.901500000000    -0.556656   
O18      O      0.520780000000     0.015580000000     0.993750000000    -0.550013   
O19      O      0.503480000000     0.009710000000     0.925850000000    -0.516638   
O20      O      0.568700000000     0.041900000000     0.969040000000    -0.56405    
O21      O      0.567830000000     0.077910000000     0.972340000000    -0.507877   
O22      O      0.501250000000     0.044830000000     0.932290000000    -0.558674   
O23      O      0.520690000000     0.051920000000     0.999110000000    -0.553491   
O24      O      0.548300000000     0.071020000000     0.905370000000    -0.533378   
O25      O      0.169430000000     0.335580000000     0.438770000000    -0.511332   
O26      O      0.195430000000     0.343820000000     0.343750000000    -0.548866   
O27      O      0.216060000000     0.357610000000     0.409360000000    -0.512809   
O28      O      0.148580000000     0.321820000000     0.373030000000    -0.552127   
O29      O      0.147620000000     0.357810000000     0.370970000000    -0.51406    
O30      O      0.216350000000     0.393960000000     0.401650000000    -0.561575   
O31      O      0.192650000000     0.378730000000     0.337400000000    -0.546426   
O32      O      0.171400000000     0.372960000000     0.434970000000    -0.556119   
O33      O      0.838850000000     0.193140000000     0.246040000000    -0.559253   
O34      O      0.855500000000     0.210280000000     0.147720000000    -0.520781   
O35      O      0.812440000000     0.183890000000     0.185020000000    -0.557167   
O36      O      0.882510000000     0.219910000000     0.208940000000    -0.550615   
O37      O      0.884780000000     0.184830000000     0.201430000000    -0.554885   
O38      O      0.814710000000     0.148890000000     0.176600000000    -0.554602   
O39      O      0.858360000000     0.175530000000     0.139970000000    -0.560812   
O40      O      0.841320000000     0.158190000000     0.238140000000    -0.557594   
O41      O      0.538880000000     0.544890000000     0.427750000000    -0.557898   
O42      O      0.539920000000     0.537370000000     0.529070000000    -0.514503   
O43      O      0.574870000000     0.554530000000     0.476820000000    -0.553284   
O44      O      0.503350000000     0.527470000000     0.479570000000    -0.549265   
O45      O      0.497600000000     0.488680000000     0.472020000000    -0.55827    
O46      O      0.568970000000     0.515670000000     0.469890000000    -0.556331   
O47      O      0.533290000000     0.498300000000     0.521710000000    -0.560087   
O48      O      0.532610000000     0.505900000000     0.420200000000    -0.555133   
O49      O      0.201160000000     0.328600000000     0.936260000000    -0.560845   
O50      O      0.194480000000     0.330010000000     0.834790000000    -0.557304   
O51      O      0.217610000000     0.313330000000     0.879230000000    -0.55523    
O52      O      0.178130000000     0.345250000000     0.891850000000    -0.556654   
O53      O      0.213550000000     0.382900000000     0.892070000000    -0.553369   
O54      O      0.252640000000     0.351100000000     0.875020000000    -0.550646   
O55      O      0.228640000000     0.368570000000     0.832950000000    -0.554322   
O56      O      0.237450000000     0.365350000000     0.933910000000    -0.510282   
O57      O      0.408670000000     0.211810000000     0.699680000000    -0.520021   
O58      O      0.395010000000     0.226710000000     0.606100000000    -0.517591   
O59      O      0.384140000000     0.234560000000     0.673380000000    -0.549093   
O60      O      0.419410000000     0.203800000000     0.632310000000    -0.551019   
O61      O      0.383180000000     0.167010000000     0.629940000000    -0.516199   
O62      O      0.348370000000     0.197310000000     0.673210000000    -0.51469    
O63      O      0.358410000000     0.190240000000     0.605230000000    -0.551231   
O64      O      0.373320000000     0.174190000000     0.697760000000    -0.550082   
O65      O      0.043540000000     0.519580000000     0.047640000000    -0.550342   
O66      O      0.038210000000     0.534760000000     0.949700000000    -0.554798   
O67      O      0.021790000000     0.542560000000     0.013000000000    -0.556439   
O68      O      0.060060000000     0.511850000000     0.984330000000    -0.515543   
O69      O      0.024450000000     0.474540000000     0.980670000000    -0.553434   
O70      O      0.985950000000     0.505750000000     0.005830000000    -0.549169   
O71      O      0.003390000000     0.496940000000     0.943830000000    -0.525105   
O72      O      0.006970000000     0.483260000000     0.042460000000    -0.520765   
O73      O      0.671330000000     0.862700000000     0.189450000000    -0.514976   
O74      O      0.678260000000     0.839060000000     0.280980000000    -0.557083   
O75      O      0.684820000000     0.829630000000     0.212360000000    -0.552233   
O76      O      0.664620000000     0.872420000000     0.257920000000    -0.558689   
O77      O      0.624160000000     0.841730000000     0.255100000000    -0.517014   
O78      O      0.644430000000     0.798560000000     0.210740000000    -0.556014   
O79      O      0.637590000000     0.808700000000     0.279030000000    -0.549603   
O80      O      0.630960000000     0.831850000000     0.186860000000    -0.558393   
O81      O      0.803040000000     0.638200000000     0.073240000000    -0.523858   
O82      O      0.808080000000     0.635960000000     0.175050000000    -0.55471    
O83      O      0.783690000000     0.651020000000     0.129530000000    -0.55292    
O84      O      0.827080000000     0.623320000000     0.118620000000    -0.560163   
O85      O      0.860800000000     0.662190000000     0.118170000000    -0.523133   
O86      O      0.817430000000     0.689850000000     0.129040000000    -0.520195   
O87      O      0.841510000000     0.675010000000     0.174410000000    -0.550589   
O88      O      0.836570000000     0.677230000000     0.072850000000    -0.5538     
O89      O      0.518430000000     0.013060000000     0.403580000000    -0.516841   
O90      O      0.527620000000     0.022980000000     0.504390000000    -0.560479   
O91      O      0.506690000000     0.037710000000     0.453190000000    -0.553981   
O92      O      0.539340000000     0.998450000000     0.454630000000    -0.553412   
O93      O      0.576470000000     0.033080000000     0.443350000000    -0.557144   
O94      O      0.544280000000     0.072730000000     0.446570000000    -0.555975   
O95      O      0.565930000000     0.056660000000     0.495340000000    -0.556161   
O96      O      0.554800000000     0.048930000000     0.394330000000    -0.559862   
O97      O      0.395050000000     0.190720000000     0.207230000000    -0.553913   
O98      O      0.397690000000     0.179090000000     0.107210000000    -0.554      
O99      O      0.414510000000     0.220370000000     0.148840000000    -0.559114   
O100     O      0.378380000000     0.149560000000     0.165520000000    -0.560574   
O101     O      0.341790000000     0.148850000000     0.155680000000    -0.521493   
O102     O      0.377810000000     0.220040000000     0.142520000000    -0.522552   
O103     O      0.361960000000     0.180410000000     0.098910000000    -0.55179    
O104     O      0.357590000000     0.188570000000     0.199260000000    -0.5515     
O105     O      0.509560000000     0.499730000000     0.925680000000    -0.556543   
O106     O      0.510970000000     0.529450000000     0.016080000000    -0.515929   
O107     O      0.521660000000     0.546450000000     0.947630000000    -0.558617   
O108     O      0.499030000000     0.483340000000     0.994000000000    -0.549536   
O109     O      0.539230000000     0.492630000000     0.001430000000    -0.553361   
O110     O      0.561860000000     0.556130000000     0.955920000000    -0.514686   
O111     O      0.551250000000     0.539200000000     0.023850000000    -0.558237   
O112     O      0.550060000000     0.510030000000     0.933100000000    -0.550181   
O113     O      0.176410000000     0.831010000000     0.277180000000    -0.549312   
O114     O      0.196220000000     0.862900000000     0.368600000000    -0.510133   
O115     O      0.203030000000     0.878830000000     0.299810000000    -0.551432   
O116     O      0.169440000000     0.814750000000     0.345890000000    -0.511829   
O117     O      0.205020000000     0.812700000000     0.343290000000    -0.562395   
O118     O      0.238710000000     0.876860000000     0.297600000000    -0.555262   
O119     O      0.231550000000     0.860400000000     0.366360000000    -0.56033    
O120     O      0.211930000000     0.828770000000     0.274700000000    -0.55459    
O121     O      0.064180000000     0.522360000000     0.544250000000    -0.557947   
O122     O      0.053830000000     0.495270000000     0.449910000000    -0.558449   
O123     O      0.075160000000     0.541990000000     0.477110000000    -0.556446   
O124     O      0.042840000000     0.475780000000     0.516880000000    -0.555659   
O125     O      0.005870000000     0.475300000000     0.516660000000    -0.557687   
O126     O      0.037540000000     0.539910000000     0.472430000000    -0.558329   
O127     O      0.015620000000     0.492080000000     0.448400000000    -0.556118   
O128     O      0.027820000000     0.523030000000     0.540580000000    -0.555079   
O129     O      0.839630000000     0.196840000000     0.741130000000    -0.54962    
O130     O      0.818360000000     0.170160000000     0.647240000000    -0.553154   
O131     O      0.806650000000     0.150890000000     0.714170000000    -0.513928   
O132     O      0.850920000000     0.215480000000     0.674150000000    -0.519589   
O133     O      0.882030000000     0.206190000000     0.671890000000    -0.558644   
O134     O      0.837650000000     0.141470000000     0.711730000000    -0.554583   
O135     O      0.849280000000     0.160520000000     0.644740000000    -0.529254   
O136     O      0.870370000000     0.186980000000     0.738860000000    -0.557613   
O137     O      0.676660000000     0.826810000000     0.688240000000    -0.515322   
O138     O      0.672290000000     0.831690000000     0.789660000000    -0.557241   
O139     O      0.659580000000     0.793530000000     0.743140000000    -0.551506   
O140     O      0.689310000000     0.864650000000     0.734650000000    -0.556205   
O141     O      0.650810000000     0.860430000000     0.728990000000    -0.553263   
O142     O      0.621040000000     0.789070000000     0.736730000000    -0.555055   
O143     O      0.633520000000     0.826750000000     0.783540000000    -0.556616   
O144     O      0.638100000000     0.822330000000     0.682120000000    -0.559047   
V1       V      0.869240000000     0.633390000000     0.624310000000     1.39835    
V2       V      0.875410000000     0.675420000000     0.620030000000     1.43551    
V3       V      0.184800000000     0.848000000000     0.822380000000     1.40874    
V4       V      0.197560000000     0.816580000000     0.817130000000     1.38841    
V5       V      0.536140000000     0.024400000000     0.947370000000     1.41031    
V6       V      0.534480000000     0.062860000000     0.952470000000     1.42099    
V7       V      0.182360000000     0.338240000000     0.391400000000     1.42226    
V8       V      0.181980000000     0.377310000000     0.386000000000     1.40119    
V9       V      0.847320000000     0.203230000000     0.197290000000     1.41588    
V10      V      0.849890000000     0.165460000000     0.188730000000     1.38936    
V11      V      0.539450000000     0.542590000000     0.478670000000     1.40864    
V12      V      0.532950000000     0.500620000000     0.470680000000     1.39314    
V13      V      0.196450000000     0.327790000000     0.885580000000     1.39331    
V14      V      0.234480000000     0.368500000000     0.883360000000     1.40427    
V15      V      0.403240000000     0.220690000000     0.652930000000     1.42712    
V16      V      0.364370000000     0.180710000000     0.651470000000     1.42299    
V17      V      0.042340000000     0.528680000000     0.998880000000     1.39641    
V18      V      0.003770000000     0.488670000000     0.992950000000     1.43564    
V19      V      0.676360000000     0.852180000000     0.235340000000     1.41334    
V20      V      0.632680000000     0.818970000000     0.232820000000     1.40517    
V21      V      0.804090000000     0.635590000000     0.124170000000     1.39908    
V22      V      0.840420000000     0.677600000000     0.123610000000     1.4353     
V23      V      0.521510000000     0.016680000000     0.454330000000     1.4171     
V24      V      0.561860000000     0.054270000000     0.444500000000     1.3882     
V25      V      0.397890000000     0.184960000000     0.157540000000     1.38528    
V26      V      0.358330000000     0.184440000000     0.148770000000     1.43452    
V27      V      0.508720000000     0.514400000000     0.970460000000     1.41064    
V28      V      0.552190000000     0.524830000000     0.978880000000     1.4078     
V29      V      0.184860000000     0.846950000000     0.323020000000     1.42879    
V30      V      0.223240000000     0.844640000000     0.320360000000     1.38706    
V31      V      0.060520000000     0.508940000000     0.497120000000     1.39429    
V32      V      0.020220000000     0.507540000000     0.494370000000     1.39566    
V33      V      0.827620000000     0.183660000000     0.694360000000     1.43437    
V34      V      0.861060000000     0.173390000000     0.691730000000     1.40023    
V35      V      0.675970000000     0.829320000000     0.739190000000     1.4166     
V36      V      0.634350000000     0.824510000000     0.732600000000     1.38428    


