data_structure

_audit_creation_method RASPA-1.0
_audit_creation_date 2023-5-25
_audit_author_name 'Poobodin Mano'

_cell_length_a    37.719
_cell_length_b    37.6975
_cell_length_c    37.774
_cell_angle_alpha 90
_cell_angle_beta  90
_cell_angle_gamma 90
_cell_volume      53711.3

_symmetry_cell_setting          triclinic
_symmetry_space_group_name_Hall 'P 1'
_symmetry_space_group_name_H-M  'P 1'
_symmetry_Int_Tables_number     1

_symmetry_equiv_pos_as_xyz 'x,y,z'

loop_
_atom_site_label
_atom_site_type_symbol
_atom_site_fract_x
_atom_site_fract_y
_atom_site_fract_z
_atom_site_charge
C1       C      0.998930000000     0.072800000000     0.517390000000     0.474962   
C2       C      0.022150000000     0.941170000000     0.502730000000     0.475971   
C3       C      0.944700000000     0.995680000000     0.498910000000     0.476345   
C4       C      0.075240000000     0.018500000000     0.521110000000     0.475477   
C5       C      0.994960000000     0.442220000000     0.509090000000     0.473503   
C6       C      0.007170000000     0.573460000000     0.482170000000     0.47259    
C7       C      0.992680000000     0.494500000000     0.430770000000     0.473001   
C8       C      0.009510000000     0.521480000000     0.561240000000     0.473425   
C9       C      0.576270000000     0.997810000000     0.486240000000     0.475014   
C10      C      0.444080000000     0.007360000000     0.508610000000     0.472463   
C11      C      0.499000000000     0.994450000000     0.432240000000     0.473252   
C12      C      0.522370000000     0.010810000000     0.563310000000     0.47349    
C13      C      0.490290000000     0.064930000000     0.007300000000     0.475323   
C14      C      0.499160000000     0.931820000000     0.990700000000     0.472961   
C15      C      0.487440000000     0.989600000000     0.064590000000     0.475316   
C16      C      0.502460000000     0.006760000000     0.932360000000     0.472931   
C17      C      0.985000000000     0.494510000000     0.062360000000     0.475013   
C18      C      0.002760000000     0.510610000000     0.930260000000     0.474062   
C19      C      0.060580000000     0.510570000000     0.006350000000     0.473158   
C20      C      0.928510000000     0.494490000000     0.987250000000     0.476794   
C21      C      0.560330000000     0.482640000000     0.987770000000     0.474362   
C22      C      0.429580000000     0.512100000000     0.998440000000     0.472902   
C23      C      0.480610000000     0.433130000000     0.004060000000     0.475899   
C24      C      0.509420000000     0.562570000000     0.981940000000     0.473962   
C25      C      0.840370000000     0.456100000000     0.961650000000    -0.0281952  
C26      C      0.649180000000     0.466750000000     0.947500000000    -0.0324015  
C27      C      0.617770000000     0.474770000000     0.017600000000     0.000100395
C28      C      0.609970000000     0.457360000000     0.953040000000    -0.00162684 
C29      C      0.727930000000     0.441570000000     0.998800000000    -0.0535309  
C30      C      0.761010000000     0.493670000000     0.957840000000    -0.0556096  
C31      C      0.707180000000     0.463690000000     0.977350000000     0.0617473  
C32      C      0.655880000000     0.484800000000     0.008710000000    -0.0325378  
C33      C      0.781420000000     0.472730000000     0.981100000000     0.0643799  
C34      C      0.830930000000     0.514900000000     0.985170000000    -0.00587582 
C35      C      0.764570000000     0.446250000000     0.000900000000    -0.0519997  
C36      C      0.868940000000     0.517710000000     0.999440000000    -0.0527692  
C37      C      0.878520000000     0.454460000000     0.975350000000     0.00108171 
C38      C      0.724120000000     0.489920000000     0.956780000000    -0.0541102  
C39      C      0.868920000000     0.515550000000     0.039390000000     0.313627   
C40      C      0.332810000000     0.519560000000     0.974730000000    -0.0275361  
C41      C      0.157200000000     0.492470000000     0.001590000000    -0.0321566  
C42      C      0.110040000000     0.547740000000     0.027930000000    -0.00225526 
C43      C      0.119230000000     0.482760000000     0.011420000000    -0.000323505
C44      C      0.224800000000     0.545480000000     0.997210000000    -0.0549908  
C45      C      0.265040000000     0.502180000000     0.041870000000    -0.0533029  
C46      C      0.207670000000     0.524760000000     0.023170000000     0.0611993  
C47      C      0.149210000000     0.553760000000     0.018730000000    -0.0317463  
C48      C      0.282130000000     0.522110000000     0.015650000000     0.0643101  
C49      C      0.340960000000     0.540870000000     0.034380000000    -0.00709932 
C50      C      0.261780000000     0.544960000000     0.994180000000    -0.0566886  
C51      C      0.378800000000     0.525970000000     0.037100000000    -0.0519524  
C52      C      0.370470000000     0.504740000000     0.972610000000    -0.000461759
C53      C      0.228300000000     0.503750000000     0.045800000000    -0.05271    
C54      C      0.379080000000     0.493610000000     0.060730000000     0.317393   
C55      C      0.524450000000     0.655260000000     0.006060000000    -0.0267356  
C56      C      0.479050000000     0.838720000000     0.962870000000    -0.0323565  
C57      C      0.532230000000     0.877310000000     0.003820000000    -0.00142652 
C58      C      0.469480000000     0.875140000000     0.978010000000    -0.000740969
C59      C      0.532200000000     0.769490000000     0.956000000000    -0.0540721  
C60      C      0.488070000000     0.723690000000     0.994080000000    -0.0576256  
C61      C      0.507290000000     0.783590000000     0.980010000000     0.060924   
C62      C      0.537950000000     0.840450000000     0.988050000000    -0.0322397  
C63      C      0.515230000000     0.709580000000     0.972700000000     0.0651611  
C64      C      0.497360000000     0.653170000000     0.947540000000    -0.00583806 
C65      C      0.536470000000     0.732770000000     0.952970000000    -0.0534139  
C66      C      0.509530000000     0.614470000000     0.941820000000    -0.0523187  
C67      C      0.538380000000     0.617490000000     0.002650000000    -0.0020346  
C68      C      0.484690000000     0.760350000000     0.998140000000    -0.0525154  
C69      C      0.541240000000     0.612340000000     0.917490000000     0.311883   
C70      C      0.457460000000     0.157600000000     0.000670000000    -0.0283922  
C71      C      0.465520000000     0.339200000000     0.982570000000    -0.0317418  
C72      C      0.476680000000     0.382580000000     0.045510000000    -0.000992143
C73      C      0.452750000000     0.377650000000     0.983090000000    -0.00200123 
C74      C      0.449970000000     0.266490000000     0.043450000000    -0.0532825  
C75      C      0.500610000000     0.232550000000     0.001350000000    -0.0558599  
C76      C      0.470760000000     0.286630000000     0.020210000000     0.061819   
C77      C      0.489070000000     0.344020000000     0.042370000000    -0.0322222  
C78      C      0.479710000000     0.212380000000     0.024860000000     0.0647565  
C79      C      0.517380000000     0.159140000000     0.023660000000    -0.00492486 
C80      C      0.454590000000     0.229820000000     0.045940000000    -0.0522082  
C81      C      0.517000000000     0.119180000000     0.032170000000    -0.0534876  
C82      C      0.453000000000     0.118360000000     0.009670000000    -0.000224852
C83      C      0.496940000000     0.269410000000     0.999870000000    -0.0552534  
C84      C      0.514300000000     0.112730000000     0.071550000000     0.30972    
C85      C      0.531750000000     0.983910000000     0.656070000000    -0.0265276  
C86      C      0.484520000000     0.029680000000     0.837580000000    -0.0324478  
C87      C      0.540940000000     0.998810000000     0.880630000000    -0.00144285 
C88      C      0.475070000000     0.014440000000     0.873890000000    -0.000367851
C89      C      0.542450000000     0.037600000000     0.769800000000    -0.0541928  
C90      C      0.498980000000     0.997330000000     0.725300000000    -0.057254   
C91      C      0.517460000000     0.014080000000     0.784690000000     0.0605785  
C92      C      0.546220000000     0.013640000000     0.843340000000    -0.0321246  
C93      C      0.526160000000     0.018280000000     0.710560000000     0.0646576  
C94      C      0.511370000000     0.045150000000     0.654100000000    -0.00552423 
C95      C      0.547120000000     0.039040000000     0.733110000000    -0.0532848  
C96      C      0.524870000000     0.049910000000     0.615810000000    -0.0516852  
C97      C      0.546620000000     0.985990000000     0.618630000000    -0.00182752 
C98      C      0.495340000000     0.994690000000     0.761980000000    -0.052361   
C99      C      0.559160000000     0.070610000000     0.614860000000     0.31262    
C100     C      0.488930000000     0.016560000000     0.335970000000    -0.0272526  
C101     C      0.507160000000     0.994040000000     0.160940000000    -0.0321873  
C102     C      0.450960000000     0.968400000000     0.114550000000    -0.00135729 
C103     C      0.516120000000     0.985510000000     0.122600000000     7.64702e-05
C104     C      0.456550000000     0.994640000000     0.230200000000    -0.0543315  
C105     C      0.503240000000     0.950300000000     0.266890000000    -0.0529746  
C106     C      0.477120000000     0.969740000000     0.211380000000     0.061504   
C107     C      0.446090000000     0.976050000000     0.154190000000    -0.0321083  
C108     C      0.483720000000     0.975730000000     0.285580000000     0.064487   
C109     C      0.469470000000     0.956220000000     0.345310000000    -0.00685934 
C110     C      0.459040000000     0.996860000000     0.267090000000    -0.0559688  
C111     C      0.486350000000     0.954200000000     0.382330000000    -0.0520581  
C112     C      0.506070000000     0.018910000000     0.372490000000    -0.000675463
C113     C      0.499710000000     0.947090000000     0.230280000000    -0.0525106  
C114     C      0.519510000000     0.931740000000     0.381230000000     0.316824   
C115     C      0.028770000000     0.494150000000     0.835900000000    -0.0282885  
C116     C      0.983060000000     0.538500000000     0.653200000000    -0.0317128  
C117     C      0.048040000000     0.523240000000     0.614240000000    -0.00118079 
C118     C      0.987070000000     0.551130000000     0.615020000000    -0.00191594 
C119     C      0.994210000000     0.503900000000     0.722760000000    -0.0553549  
C120     C      0.033290000000     0.548110000000     0.767640000000    -0.0564465  
C121     C      0.015860000000     0.530610000000     0.708140000000     0.0613825  
C122     C      0.041620000000     0.511300000000     0.652550000000    -0.0324094  
C123     C      0.009410000000     0.523340000000     0.782240000000     0.0640595  
C124     C      0.003870000000     0.553000000000     0.839970000000    -0.00571348 
C125     C      0.990600000000     0.500860000000     0.759430000000    -0.0522651  
C126     C      0.989600000000     0.546720000000     0.877600000000    -0.0534023  
C127     C      0.015000000000     0.483520000000     0.872450000000     0.000399885
C128     C      0.035900000000     0.552040000000     0.730900000000    -0.0530073  
C129     C      0.949670000000     0.543650000000     0.876930000000     0.313472   
C130     C      0.016790000000     0.478640000000     0.336870000000    -0.0271943  
C131     C      0.994490000000     0.459780000000     0.153560000000    -0.0323672  
C132     C      0.957720000000     0.517190000000     0.117180000000    -0.00297703 
C133     C      0.983950000000     0.455250000000     0.114640000000    -0.00090494 
C134     C      0.996740000000     0.504150000000     0.227700000000    -0.0540771  
C135     C      0.955980000000     0.455260000000     0.265620000000    -0.0530742  
C136     C      0.972690000000     0.482070000000     0.209490000000     0.0615099  
C137     C      0.968870000000     0.518800000000     0.156030000000    -0.0310396  
C138     C      0.979290000000     0.477670000000     0.283920000000     0.0649927  
C139     C      0.956040000000     0.499570000000     0.339480000000    -0.00603561 
C140     C      0.999180000000     0.502740000000     0.264600000000    -0.0562305  
C141     C      0.952750000000     0.490390000000     0.379100000000    -0.0527313  
C142     C      0.016740000000     0.468260000000     0.375950000000    -0.00189693 
C143     C      0.952530000000     0.457620000000     0.228870000000    -0.0518358  
C144     C      0.931140000000     0.457090000000     0.384530000000     0.313926   
C145     C      0.168250000000     0.032850000000     0.497520000000    -0.0258876  
C146     C      0.351820000000     0.987590000000     0.539760000000    -0.0321539  
C147     C      0.389240000000     0.040470000000     0.497300000000    -0.00184214 
C148     C      0.387970000000     0.977960000000     0.524040000000    -0.000742073
C149     C      0.272840000000     0.992300000000     0.505550000000    -0.0525187  
C150     C      0.245610000000     0.044670000000     0.550290000000    -0.0528417  
C151     C      0.296200000000     0.015210000000     0.523120000000     0.0610224  
C152     C      0.352690000000     0.046150000000     0.513760000000    -0.0317981  
C153     C      0.222280000000     0.023140000000     0.531030000000     0.0645903  
C154     C      0.165670000000     0.005440000000     0.555890000000    -0.00560747 
C155     C      0.236230000000     0.995690000000     0.509900000000    -0.0571107  
C156     C      0.126990000000     0.017690000000     0.561390000000    -0.0516068  
C157     C      0.130520000000     0.046850000000     0.500760000000    -0.00286845 
C158     C      0.282300000000     0.040400000000     0.546970000000    -0.0546927  
C159     C      0.125000000000     0.049490000000     0.585660000000     0.313294   
C160     C      0.854940000000     0.005850000000     0.460970000000    -0.0284172  
C161     C      0.669710000000     0.025680000000     0.472350000000    -0.0318395  
C162     C      0.629520000000     0.960220000000     0.481410000000    -0.000541207
C163     C      0.630650000000     0.024570000000     0.461470000000    -0.00178757 
C164     C      0.743130000000     0.966360000000     0.450490000000    -0.0525568  
C165     C      0.778900000000     0.007140000000     0.500890000000    -0.0563252  
C166     C      0.723800000000     0.989460000000     0.472230000000     0.0618203  
C167     C      0.668340000000     0.964520000000     0.492260000000    -0.0321843  
C168     C      0.798080000000     0.983130000000     0.479630000000     0.0653271  
C169     C      0.849660000000     0.978010000000     0.518710000000    -0.00470874 
C170     C      0.779820000000     0.963040000000     0.454320000000    -0.052095   
C171     C      0.889150000000     0.967750000000     0.519170000000    -0.0533012  
C172     C      0.894000000000     0.995420000000     0.457700000000    -0.00075563 
C173     C      0.742030000000     0.009450000000     0.498000000000    -0.0543552  
C174     C      0.894370000000     0.928580000000     0.512470000000     0.30911    
C175     C      0.050870000000     0.660770000000     0.471110000000    -0.0268492  
C176     C      0.012170000000     0.844610000000     0.516380000000    -0.0317169  
C177     C      0.047970000000     0.892440000000     0.467360000000    -0.00137898 
C178     C      0.023570000000     0.881390000000     0.529110000000    -0.000935044
C179     C      0.009150000000     0.781180000000     0.457090000000    -0.0544142  
C180     C      0.047520000000     0.733820000000     0.499300000000    -0.0567312  
C181     C      0.033030000000     0.794460000000     0.482560000000     0.0613768  
C182     C      0.036390000000     0.854730000000     0.457770000000    -0.0322777  
C183     C      0.025050000000     0.720550000000     0.472570000000     0.0644266  
C184     C      0.989990000000     0.669840000000     0.489800000000    -0.00574143 
C185     C      0.005840000000     0.744630000000     0.451790000000    -0.0524222  
C186     C      0.978980000000     0.632380000000     0.478010000000    -0.051558   
C187     C      0.043120000000     0.622980000000     0.458540000000    -0.0018672  
C188     C      0.051910000000     0.770360000000     0.503630000000    -0.0527609  
C189     C      0.958880000000     0.633420000000     0.443420000000     0.312768   
C190     C      0.969060000000     0.161450000000     0.551120000000    -0.0274707  
C191     C      0.019910000000     0.346610000000     0.516400000000    -0.0312625  
C192     C      0.957090000000     0.391130000000     0.524310000000    -0.00135017 
C193     C      0.019380000000     0.382950000000     0.498750000000    -0.00192981 
C194     C      0.004740000000     0.279160000000     0.551960000000    -0.05486    
C195     C      0.961170000000     0.236230000000     0.510120000000    -0.0562868  
C196     C      0.982360000000     0.294870000000     0.526490000000     0.0617643  
C197     C      0.961180000000     0.354210000000     0.541000000000    -0.031747   
C198     C      0.986810000000     0.220480000000     0.532240000000     0.0640501  
C199     C      0.998580000000     0.169400000000     0.494780000000    -0.00527987 
C200     C      0.007370000000     0.242230000000     0.554190000000    -0.0521777  
C201     C      0.014230000000     0.131930000000     0.495260000000    -0.0537228  
C202     C      0.983700000000     0.123700000000     0.555470000000    -0.00077189 
C203     C      0.959540000000     0.273120000000     0.506850000000    -0.0522947  
C204     C      0.053560000000     0.133200000000     0.502830000000     0.314149   
H1       H      0.709080000000     0.507950000000     0.940380000000     0.0427201  
H2       H      0.829880000000     0.428520000000     0.960390000000     0.0354597  
H3       H      0.812920000000     0.531840000000     0.001340000000     0.0386086  
H4       H      0.617600000000     0.448000000000     0.029980000000     0.0365642  
H5       H      0.879290000000     0.437220000000     0.999230000000     0.0496438  
H6       H      0.660140000000     0.449530000000     0.926220000000     0.0356402  
H7       H      0.672040000000     0.481760000000     0.033210000000     0.0368408  
H8       H      0.594850000000     0.465330000000     0.929060000000     0.0409808  
H9       H      0.878950000000     0.544440000000     0.991760000000     0.0685376  
H10      H      0.773190000000     0.513820000000     0.941500000000     0.0431368  
H11      H      0.895400000000     0.441650000000     0.954850000000     0.0383579  
H12      H      0.715370000000     0.421570000000     0.015120000000     0.0458557  
H13      H      0.839860000000     0.467280000000     0.934350000000     0.0389892  
H14      H      0.607680000000     0.494000000000     0.037540000000     0.0400887  
H15      H      0.650760000000     0.494850000000     0.938600000000     0.0396954  
H16      H      0.657200000000     0.513120000000     0.000340000000     0.0419646  
H17      H      0.779880000000     0.429630000000     0.018590000000     0.0499257  
H18      H      0.830590000000     0.525490000000     0.957640000000     0.0352794  
H19      H      0.607630000000     0.428070000000     0.955610000000     0.0351645  
H20      H      0.862170000000     0.482320000000     0.081180000000     0.177594   
H21      H      0.215610000000     0.487340000000     0.065640000000     0.0456861  
H22      H      0.315500000000     0.503580000000     0.956970000000     0.0352031  
H23      H      0.329080000000     0.542470000000     0.061360000000     0.0366831  
H24      H      0.107420000000     0.546360000000     0.057220000000     0.035815   
H25      H      0.369080000000     0.475280000000     0.973320000000     0.047354   
H26      H      0.173860000000     0.468290000000     0.004850000000     0.035011   
H27      H      0.159690000000     0.575580000000     0.035580000000     0.0351052  
H28      H      0.109480000000     0.462870000000     0.991960000000     0.0376806  
H29      H      0.395590000000     0.546770000000     0.049700000000     0.0605819  
H30      H      0.280290000000     0.484780000000     0.058870000000     0.0526496  
H31      H      0.381830000000     0.512100000000     0.946440000000     0.0386032  
H32      H      0.209850000000     0.561600000000     0.978860000000     0.0401281  
H33      H      0.332950000000     0.547430000000     0.964940000000     0.034487   
H34      H      0.094520000000     0.571120000000     0.018870000000     0.0394141  
H35      H      0.158520000000     0.500690000000     0.973280000000     0.0383293  
H36      H      0.150920000000     0.562190000000     0.990540000000     0.0363802  
H37      H      0.274100000000     0.561360000000     0.974180000000     0.0404462  
H38      H      0.341730000000     0.568390000000     0.023660000000     0.0329466  
H39      H      0.119240000000     0.469960000000     0.037950000000     0.0365672  
H40      H      0.367760000000     0.440960000000     0.062810000000     0.177874   
H41      H      0.464670000000     0.770770000000     0.015870000000     0.0443736  
H42      H      0.542830000000     0.670480000000     0.023410000000     0.0374718  
H43      H      0.495570000000     0.666790000000     0.921420000000     0.0357314  
H44      H      0.527760000000     0.874520000000     0.032790000000     0.0357565  
H45      H      0.566530000000     0.618640000000     0.994040000000     0.0486821  
H46      H      0.454210000000     0.822940000000     0.960460000000     0.0343047  
H47      H      0.557380000000     0.825940000000     0.004850000000     0.0362741  
H48      H      0.453430000000     0.889760000000     0.958060000000     0.0366752  
H49      H      0.487150000000     0.600490000000     0.928570000000     0.0618701  
H50      H      0.470190000000     0.706540000000     0.008490000000     0.0417657  
H51      H      0.538010000000     0.604820000000     0.029210000000     0.0409894  
H52      H      0.549120000000     0.786590000000     0.940430000000     0.0420668  
H53      H      0.497990000000     0.654210000000     0.019050000000     0.0376144  
H54      H      0.557000000000     0.892910000000     0.000310000000     0.0394648  
H55      H      0.490650000000     0.841680000000     0.935910000000     0.0384484  
H56      H      0.549460000000     0.843500000000     0.961080000000     0.0372233  
H57      H      0.556800000000     0.722300000000     0.935620000000     0.0548625  
H58      H      0.470290000000     0.653170000000     0.959360000000     0.0322634  
H59      H      0.452600000000     0.871360000000     0.001850000000     0.037123   
H60      H      0.561260000000     0.586560000000     0.874720000000     0.179034   
H61      H      0.514150000000     0.284150000000     0.982340000000     0.0406279  
H62      H      0.430800000000     0.170260000000     0.001650000000     0.0353671  
H63      H      0.535770000000     0.173110000000     0.042060000000     0.0364467  
H64      H      0.450850000000     0.383120000000     0.059690000000     0.0399884  
H65      H      0.437880000000     0.115990000000     0.034830000000     0.0487679  
H66      H      0.447700000000     0.323550000000     0.965030000000     0.0349484  
H67      H      0.488850000000     0.332020000000     0.069300000000     0.03663    
H68      H      0.455600000000     0.388980000000     0.956080000000     0.0398359  
H69      H      0.543030000000     0.108460000000     0.023280000000     0.0640088  
H70      H      0.519820000000     0.220110000000     0.984130000000     0.0406142  
H71      H      0.436940000000     0.105690000000     0.988450000000     0.0368137  
H72      H      0.430060000000     0.279330000000     0.059640000000     0.0464004  
H73      H      0.467950000000     0.160530000000     0.973250000000     0.037133   
H74      H      0.496300000000     0.397480000000     0.061690000000     0.0401935  
H75      H      0.492740000000     0.338720000000     0.971220000000     0.0375855  
H76      H      0.516770000000     0.343190000000     0.032150000000     0.0394671  
H77      H      0.438030000000     0.214740000000     0.063890000000     0.0513857  
H78      H      0.527940000000     0.162400000000     0.996340000000     0.0305882  
H79      H      0.424030000000     0.377830000000     0.989740000000     0.0374197  
H80      H      0.535510000000     0.084840000000     0.112410000000     0.177619   
H81      H      0.475330000000     0.977210000000     0.772860000000     0.0434579  
H82      H      0.547730000000     0.964410000000     0.671410000000     0.0365169  
H83      H      0.512080000000     0.071250000000     0.667920000000     0.0354076  
H84      H      0.541810000000     0.969350000000     0.879290000000     0.0355615  
H85      H      0.575590000000     0.991130000000     0.620310000000     0.0479616  
H86      H      0.460500000000     0.028100000000     0.820530000000     0.0338234  
H87      H      0.568700000000     0.999270000000     0.830730000000     0.0355253  
H88      H      0.455550000000     0.032370000000     0.886840000000     0.0361186  
H89      H      0.504300000000     0.065620000000     0.601560000000     0.06062    
H90      H      0.481200000000     0.982150000000     0.708740000000     0.0410352  
H91      H      0.543250000000     0.959730000000     0.605690000000     0.0401044  
H92      H      0.559180000000     0.054050000000     0.786250000000     0.0412283  
H93      H      0.503980000000     0.974080000000     0.654380000000     0.0365577  
H94      H      0.563660000000     0.007370000000     0.897340000000     0.0390638  
H95      H      0.492030000000     0.058160000000     0.840070000000     0.0382795  
H96      H      0.553390000000     0.042220000000     0.845450000000     0.0366647  
H97      H      0.567450000000     0.056110000000     0.722150000000     0.0529327  
H98      H      0.483210000000     0.036230000000     0.653530000000     0.0323102  
H99      H      0.461940000000     0.988290000000     0.870150000000     0.0372599  
H100     H      0.608730000000     0.074140000000     0.635600000000     0.177644   
H101     H      0.516000000000     0.928060000000     0.216250000000     0.0462095  
H102     H      0.503420000000     0.034680000000     0.317740000000     0.0363233  
H103     H      0.468170000000     0.929080000000     0.333670000000     0.0365409  
H104     H      0.451860000000     0.939170000000     0.110670000000     0.0354141  
H105     H      0.535350000000     0.017650000000     0.369320000000     0.0485713  
H106     H      0.531830000000     0.990930000000     0.176850000000     0.0362061  
H107     H      0.424870000000     0.958450000000     0.164690000000     0.0353705  
H108     H      0.535070000000     0.005920000000     0.112860000000     0.0433653  
H109     H      0.466820000000     0.940920000000     0.400080000000     0.0610213  
H110     H      0.522000000000     0.933530000000     0.280720000000     0.05301    
H111     H      0.499830000000     0.045410000000     0.383850000000     0.0395137  
H112     H      0.439180000000     0.012930000000     0.216600000000     0.0416243  
H113     H      0.460960000000     0.025810000000     0.337990000000     0.0353284  
H114     H      0.427320000000     0.978370000000     0.100040000000     0.0394842  
H115     H      0.498310000000     0.022160000000     0.163290000000     0.0411487  
H116     H      0.437310000000     0.004070000000     0.157250000000     0.0385808  
H117     H      0.442830000000     0.016170000000     0.280720000000     0.0412585  
H118     H      0.441710000000     0.966090000000     0.347460000000     0.0332313  
H119     H      0.529800000000     0.959380000000     0.121550000000     0.0376831  
H120     H      0.571060000000     0.930790000000     0.365640000000     0.1784     
H121     H      0.053420000000     0.572050000000     0.720080000000     0.0444865  
H122     H      0.030720000000     0.469720000000     0.819440000000     0.0344848  
H123     H      0.987230000000     0.573190000000     0.826240000000     0.0373392  
H124     H      0.063800000000     0.548160000000     0.614570000000     0.035973   
H125     H      0.991350000000     0.466220000000     0.869090000000     0.0495319  
H126     H      0.965590000000     0.557470000000     0.667540000000     0.0368097  
H127     H      0.067660000000     0.510090000000     0.666350000000     0.0344029  
H128     H      0.960710000000     0.550210000000     0.601910000000     0.0407113  
H129     H      0.996680000000     0.570590000000     0.893510000000     0.0633856  
H130     H      0.049330000000     0.564960000000     0.784370000000     0.0411663  
H131     H      0.035720000000     0.467430000000     0.885930000000     0.0360437  
H132     H      0.979500000000     0.485900000000     0.706000000000     0.0415062  
H133     H      0.055840000000     0.505760000000     0.838190000000     0.036414   
H134     H      0.063890000000     0.502560000000     0.600430000000     0.0371189  
H135     H      0.969920000000     0.512070000000     0.652850000000     0.0387684  
H136     H      0.029820000000     0.484210000000     0.652720000000     0.0384283  
H137     H      0.972950000000     0.480940000000     0.770220000000     0.049113   
H138     H      0.031160000000     0.564070000000     0.842140000000     0.030934   
H139     H      0.995750000000     0.579320000000     0.615390000000     0.0349847  
H140     H      0.908620000000     0.512240000000     0.861800000000     0.177937   
H141     H      0.934190000000     0.440170000000     0.215320000000     0.0469257  
H142     H      0.035520000000     0.460950000000     0.322500000000     0.0364274  
H143     H      0.929330000000     0.497960000000     0.326960000000     0.037853   
H144     H      0.929090000000     0.510270000000     0.115920000000     0.0448733  
H145     H      0.012760000000     0.439120000000     0.377970000000     0.0484628  
H146     H      0.994830000000     0.433060000000     0.166120000000     0.0357386  
H147     H      0.949970000000     0.536200000000     0.170530000000     0.0383469  
H148     H      0.005040000000     0.439880000000     0.100910000000     0.0377432  
H149     H      0.938130000000     0.512740000000     0.391700000000     0.0688554  
H150     H      0.940170000000     0.436120000000     0.280040000000     0.0553187  
H151     H      0.043370000000     0.474130000000     0.387120000000     0.0399427  
H152     H      0.013350000000     0.522820000000     0.213690000000     0.041009   
H153     H      0.026550000000     0.506410000000     0.334710000000     0.0369463  
H154     H      0.960770000000     0.544050000000     0.105420000000     0.0472984  
H155     H      0.021710000000     0.471110000000     0.155350000000     0.0390208  
H156     H      0.995740000000     0.530920000000     0.157390000000     0.038091   
H157     H      0.016870000000     0.521050000000     0.277740000000     0.0417006  
H158     H      0.965400000000     0.527460000000     0.336590000000     0.036146   
H159     H      0.959010000000     0.439570000000     0.113300000000     0.0389782  
H160     H      0.887070000000     0.437420000000     0.408380000000     0.180096   
H161     H      0.299520000000     0.057590000000     0.562100000000     0.0416559  
H162     H      0.183620000000     0.051320000000     0.480390000000     0.0387021  
H163     H      0.179100000000     0.003490000000     0.582080000000     0.0359084  
H164     H      0.385920000000     0.035920000000     0.468400000000     0.0360313  
H165     H      0.131640000000     0.074980000000     0.509520000000     0.0579397  
H166     H      0.336230000000     0.962700000000     0.542880000000     0.0346153  
H167     H      0.337730000000     0.065300000000     0.497030000000     0.0359203  
H168     H      0.403170000000     0.962490000000     0.544020000000     0.0373328  
H169     H      0.112840000000     0.995260000000     0.574430000000     0.06094    
H170     H      0.235280000000     0.065260000000     0.567420000000     0.0529745  
H171     H      0.118070000000     0.046660000000     0.474100000000     0.0485215  
H172     H      0.283100000000     0.972080000000     0.487950000000     0.0444409  
H173     H      0.167230000000     0.006470000000     0.484340000000     0.0370789  
H174     H      0.404820000000     0.065320000000     0.500450000000     0.0399895  
H175     H      0.355250000000     0.999630000000     0.566480000000     0.0381712  
H176     H      0.356180000000     0.058010000000     0.540530000000     0.0370287  
H177     H      0.218960000000     0.977650000000     0.495830000000     0.0414305  
H178     H      0.165670000000     0.978400000000     0.543950000000     0.0322649  
H179     H      0.383810000000     0.960460000000     0.500710000000     0.0382332  
H180     H      0.144840000000     0.098690000000     0.595130000000     0.178433   
H181     H      0.728070000000     0.027000000000     0.515810000000     0.0417757  
H182     H      0.843530000000     0.007320000000     0.433820000000     0.0363367  
H183     H      0.834190000000     0.958640000000     0.534740000000     0.0371979  
H184     H      0.628410000000     0.946940000000     0.455140000000     0.040939   
H185     H      0.896040000000     0.971040000000     0.441250000000     0.0492882  
H186     H      0.683800000000     0.045020000000     0.455100000000     0.0362733  
H187     H      0.681400000000     0.938110000000     0.490190000000     0.0372177  
H188     H      0.618420000000     0.050700000000     0.467590000000     0.0425932  
H189     H      0.898800000000     0.973250000000     0.546470000000     0.0647218  
H190     H      0.792110000000     0.023760000000     0.520110000000     0.0415069  
H191     H      0.908310000000     0.017020000000     0.443620000000     0.0380898  
H192     H      0.729550000000     0.950460000000     0.430840000000     0.0471233  
H193     H      0.852680000000     0.032610000000     0.473310000000     0.0378548  
H194     H      0.616270000000     0.942560000000     0.500950000000     0.040685   
H195     H      0.671180000000     0.035210000000     0.500200000000     0.0398466  
H196     H      0.670000000000     0.973390000000     0.520360000000     0.0408203  
H197     H      0.794160000000     0.944770000000     0.437450000000     0.0527606  
H198     H      0.847130000000     0.004430000000     0.531610000000     0.0313189  
H199     H      0.629180000000     0.020800000000     0.432320000000     0.0378053  
H200     H      0.922200000000     0.885270000000     0.528340000000     0.177848   
H201     H      0.069610000000     0.780060000000     0.524030000000     0.0442421  
H202     H      0.072890000000     0.671810000000     0.454880000000     0.0361667  
H203     H      0.966530000000     0.687750000000     0.488100000000     0.0362079  
H204     H      0.076870000000     0.892140000000     0.473170000000     0.0348188  
H205     H      0.039960000000     0.623290000000     0.429290000000     0.0482866  
H206     H      0.011990000000     0.826500000000     0.539660000000     0.0356212  
H207     H      0.054690000000     0.844160000000     0.437220000000     0.0359166  
H208     H      0.003080000000     0.891530000000     0.547720000000     0.0449801  
H209     H      0.960720000000     0.622210000000     0.498870000000     0.0624126  
H210     H      0.061720000000     0.716240000000     0.516880000000     0.0411094  
H211     H      0.066530000000     0.606110000000     0.464550000000     0.0391627  
H212     H      0.993050000000     0.798760000000     0.441210000000     0.0436321  
H213     H      0.059730000000     0.659420000000     0.499180000000     0.0357207  
H214     H      0.043900000000     0.909840000000     0.443960000000     0.0403674  
H215     H      0.984740000000     0.845780000000     0.505490000000     0.0412994  
H216     H      0.009210000000     0.856080000000     0.446380000000     0.0402831  
H217     H      0.987620000000     0.734910000000     0.431860000000     0.0537861  
H218     H      0.998430000000     0.669140000000     0.518070000000     0.0329139  
H219     H      0.048890000000     0.878860000000     0.543990000000     0.0374259  
H220     H      0.960950000000     0.649800000000     0.392220000000     0.178652   
H221     H      0.941430000000     0.284800000000     0.487900000000     0.0464996  
H222     H      0.964930000000     0.172960000000     0.577940000000     0.0362807  
H223     H      0.016080000000     0.187230000000     0.479010000000     0.0375238  
H224     H      0.939860000000     0.388900000000     0.500520000000     0.0420372  
H225     H      0.006100000000     0.124310000000     0.574590000000     0.0553641  
H226     H      0.037270000000     0.328780000000     0.500540000000     0.0369886  
H227     H      0.934360000000     0.342160000000     0.543560000000     0.0354022  
H228     H      0.046220000000     0.394880000000     0.501350000000     0.0397772  
H229     H      0.010590000000     0.121070000000     0.468070000000     0.0640075  
H230     H      0.943840000000     0.220160000000     0.493900000000     0.0419238  
H231     H      0.962680000000     0.106610000000     0.567130000000     0.0378094  
H232     H      0.021640000000     0.295190000000     0.568660000000     0.0415837  
H233     H      0.942910000000     0.160570000000     0.537440000000     0.0367219  
H234     H      0.943390000000     0.408840000000     0.543480000000     0.0379334  
H235     H      0.031620000000     0.349440000000     0.543310000000     0.03697    
H236     H      0.972790000000     0.356570000000     0.568010000000     0.0378769  
H237     H      0.026540000000     0.230510000000     0.572050000000     0.0507692  
H238     H      0.972470000000     0.168230000000     0.481050000000     0.0318457  
H239     H      0.014230000000     0.379330000000     0.469980000000     0.0390817  
H240     H      0.090380000000     0.142700000000     0.540920000000     0.181949   
N1       N      0.892590000000     0.489850000000     0.984850000000    -0.166595   
N2       N      0.819130000000     0.477750000000     0.985900000000    -0.108813   
N3       N      0.669040000000     0.461320000000     0.980640000000    -0.112548   
N4       N      0.595480000000     0.473880000000     0.985470000000    -0.180563   
N5       N      0.393710000000     0.516800000000     0.001900000000    -0.167217   
N6       N      0.319980000000     0.517660000000     0.011380000000    -0.109254   
N7       N      0.169540000000     0.521010000000     0.024940000000    -0.112586   
N8       N      0.096120000000     0.514370000000     0.012690000000    -0.180992   
N9       N      0.517870000000     0.597360000000     0.976060000000    -0.169356   
N10      N      0.522320000000     0.671950000000     0.970860000000    -0.108572   
N11      N      0.504070000000     0.821200000000     0.986860000000    -0.112359   
N12      N      0.501270000000     0.895670000000     0.988250000000    -0.181123   
N13      N      0.487610000000     0.100520000000     0.013960000000    -0.169618   
N14      N      0.481400000000     0.174070000000     0.026510000000    -0.10837    
N15      N      0.465030000000     0.324530000000     0.018730000000    -0.112679   
N16      N      0.471920000000     0.398450000000     0.010120000000    -0.180331   
N17      N      0.529840000000     0.015090000000     0.598470000000    -0.169417   
N18      N      0.533370000000     0.019090000000     0.672960000000    -0.107647   
N19      N      0.513650000000     0.008840000000     0.822480000000    -0.112166   
N20      N      0.506680000000     0.009460000000     0.896500000000    -0.181098   
N21      N      0.494890000000     0.989900000000     0.396500000000    -0.167681   
N22      N      0.490700000000     0.979880000000     0.322990000000    -0.108944   
N23      N      0.479540000000     0.969560000000     0.173170000000    -0.11217    
N24      N      0.484060000000     0.983820000000     0.100200000000    -0.179691   
N25      N      0.004910000000     0.514540000000     0.894270000000    -0.168175   
N26      N      0.004030000000     0.519510000000     0.819970000000    -0.108855   
N27      N      0.018090000000     0.536730000000     0.670410000000    -0.112961   
N28      N      0.014070000000     0.530030000000     0.596130000000    -0.18124    
N29      N      0.988040000000     0.486260000000     0.395750000000    -0.167904   
N30      N      0.980840000000     0.475060000000     0.322120000000    -0.108573   
N31      N      0.968700000000     0.482890000000     0.171390000000    -0.112309   
N32      N      0.977960000000     0.489950000000     0.097600000000    -0.179666   
N33      N      0.110160000000     0.026220000000     0.527080000000    -0.168088   
N34      N      0.184700000000     0.030440000000     0.532810000000    -0.107616   
N35      N      0.333700000000     0.012150000000     0.515730000000    -0.112398   
N36      N      0.408080000000     0.009620000000     0.512570000000    -0.180566   
N37      N      0.909710000000     0.988300000000     0.492800000000    -0.169706   
N38      N      0.836140000000     0.979140000000     0.482130000000    -0.108203   
N39      N      0.685600000000     0.990180000000     0.468650000000    -0.112162   
N40      N      0.611660000000     0.994970000000     0.478760000000    -0.179302   
N41      N      0.010220000000     0.608860000000     0.474540000000    -0.168846   
N42      N      0.018960000000     0.682990000000     0.467380000000    -0.107514   
N43      N      0.037280000000     0.831990000000     0.489480000000    -0.112551   
N44      N      0.029090000000     0.905730000000     0.498990000000    -0.179599   
N45      N      0.996480000000     0.108780000000     0.521580000000    -0.167574   
N46      N      0.994530000000     0.182930000000     0.531090000000    -0.108876   
N47      N      0.983700000000     0.332290000000     0.518150000000    -0.111834   
N48      N      0.991560000000     0.406340000000     0.513460000000    -0.179789   
O1       O      0.005910000000     0.060130000000     0.486640000000    -0.557043   
O2       O      0.023680000000     0.961790000000     0.475670000000    -0.556791   
O3       O      0.965270000000     0.003170000000     0.472830000000    -0.5568     
O4       O      0.063060000000     0.019640000000     0.489410000000    -0.556362   
O5       O      0.054770000000     0.010870000000     0.547250000000    -0.544634   
O6       O      0.956880000000     0.994180000000     0.530610000000    -0.551731   
O7       O      0.014550000000     0.953620000000     0.533460000000    -0.552564   
O8       O      0.996380000000     0.052200000000     0.544420000000    -0.548406   
O9       O      0.967360000000     0.462240000000     0.509990000000    -0.551808   
O10      O      0.976450000000     0.560350000000     0.488780000000    -0.549156   
O11      O      0.965590000000     0.501490000000     0.450240000000    -0.543542   
O12      O      0.978250000000     0.521910000000     0.547840000000    -0.558562   
O13      O      0.036550000000     0.513780000000     0.541970000000    -0.555355   
O14      O      0.024010000000     0.494530000000     0.444050000000    -0.555988   
O15      O      0.034860000000     0.553580000000     0.482460000000    -0.555214   
O16      O      0.025640000000     0.455390000000     0.502480000000    -0.558672   
O17      O      0.558050000000     0.969660000000     0.492310000000    -0.553628   
O18      O      0.459570000000     0.977150000000     0.511690000000    -0.556251   
O19      O      0.498580000000     0.967360000000     0.452940000000    -0.548289   
O20      O      0.519350000000     0.979420000000     0.550500000000    -0.558747   
O21      O      0.518910000000     0.038160000000     0.543290000000    -0.546898   
O22      O      0.504570000000     0.025660000000     0.444640000000    -0.558338   
O23      O      0.461950000000     0.035240000000     0.500580000000    -0.557273   
O24      O      0.561360000000     0.028460000000     0.486400000000    -0.552611   
O25      O      0.462060000000     0.046660000000     0.001840000000    -0.555378   
O26      O      0.468930000000     0.947240000000     0.987550000000    -0.555992   
O27      O      0.459960000000     0.989190000000     0.044410000000    -0.55142    
O28      O      0.471110000000     0.004650000000     0.945520000000    -0.555966   
O29      O      0.529870000000     0.005100000000     0.952500000000    -0.560064   
O30      O      0.518440000000     0.994610000000     0.051520000000    -0.557803   
O31      O      0.527210000000     0.949970000000     0.997330000000    -0.559717   
O32      O      0.520840000000     0.049870000000     0.007770000000    -0.551875   
O33      O      0.992000000000     0.467440000000     0.042840000000    -0.554135   
O34      O      0.005540000000     0.479540000000     0.943930000000    -0.556391   
O35      O      0.047910000000     0.479490000000     0.000600000000    -0.560397   
O36      O      0.949230000000     0.467450000000     0.985660000000    -0.55358    
O37      O      0.941060000000     0.525650000000     0.992840000000    -0.548238   
O38      O      0.040040000000     0.537800000000     0.006920000000    -0.555331   
O39      O      0.996430000000     0.537720000000     0.949920000000    -0.551019   
O40      O      0.983550000000     0.525720000000     0.048850000000    -0.554057   
O41      O      0.547150000000     0.490680000000     0.018050000000    -0.561171   
O42      O      0.449640000000     0.513770000000     0.025920000000    -0.549731   
O43      O      0.487870000000     0.453600000000     0.030280000000    -0.55466    
O44      O      0.509750000000     0.550380000000     0.013660000000    -0.559523   
O45      O      0.501580000000     0.542310000000     0.955720000000    -0.546227   
O46      O      0.480920000000     0.445110000000     0.972230000000    -0.556796   
O47      O      0.442640000000     0.504180000000     0.968050000000    -0.556067   
O48      O      0.540650000000     0.482290000000     0.959960000000    -0.551271   
O49      O      0.862290000000     0.484330000000     0.055640000000    -0.337854   
O50      O      0.874570000000     0.542130000000     0.057030000000    -0.254487   
O51      O      0.368020000000     0.461970000000     0.048090000000    -0.338318   
O52      O      0.388570000000     0.496240000000     0.091560000000    -0.255452   
O53      O      0.541190000000     0.588830000000     0.890520000000    -0.343429   
O54      O      0.567240000000     0.631040000000     0.922550000000    -0.246542   
O55      O      0.537030000000     0.090040000000     0.087360000000    -0.344195   
O56      O      0.490950000000     0.126980000000     0.088940000000    -0.245434   
O57      O      0.586470000000     0.061380000000     0.636070000000    -0.339184   
O58      O      0.562480000000     0.095320000000     0.594180000000    -0.250915   
O59      O      0.549580000000     0.944790000000     0.366830000000    -0.338112   
O60      O      0.518940000000     0.901450000000     0.392750000000    -0.254589   
O61      O      0.934140000000     0.514770000000     0.862540000000    -0.337744   
O62      O      0.931380000000     0.567450000000     0.889150000000    -0.252231   
O63      O      0.901340000000     0.458360000000     0.404290000000    -0.342563   
O64      O      0.940640000000     0.428980000000     0.371460000000    -0.246161   
O65      O      0.146070000000     0.077930000000     0.580120000000    -0.338541   
O66      O      0.103520000000     0.049860000000     0.609890000000    -0.248143   
O67      O      0.917680000000     0.910200000000     0.532460000000    -0.3436     
O68      O      0.878780000000     0.913790000000     0.488230000000    -0.244781   
O69      O      0.973310000000     0.649060000000     0.414660000000    -0.338364   
O70      O      0.929680000000     0.619520000000     0.441290000000    -0.248854   
O71      O      0.065320000000     0.141880000000     0.535470000000    -0.335805   
O72      O      0.074800000000     0.126580000000     0.479300000000    -0.255934   
V1       V      0.014700000000     0.011380000000     0.478820000000     1.40646    
V2       V      0.005300000000     0.002460000000     0.541270000000     1.39772    
V3       V      0.969570000000     0.511680000000     0.499460000000     1.40499    
V4       V      0.032610000000     0.504140000000     0.492600000000     1.3902     
V5       V      0.508700000000     0.971050000000     0.502180000000     1.39986    
V6       V      0.511790000000     0.034250000000     0.493540000000     1.39996    
V7       V      0.463150000000     0.996840000000     0.994550000000     1.38399    
V8       V      0.526420000000     0.000070000000     0.002430000000     1.41039    
V9       V      0.999000000000     0.471170000000     0.993020000000     1.39412    
V10      V      0.990120000000     0.534080000000     0.999780000000     1.40325    
V11      V      0.498800000000     0.502480000000     0.024270000000     1.40925    
V12      V      0.491280000000     0.493220000000     0.961630000000     1.39119    


