data_structure

_audit_creation_method RASPA-1.0
_audit_creation_date 2023-5-25
_audit_author_name 'Poobodin Mano'

_cell_length_a    37.8611
_cell_length_b    37.6134
_cell_length_c    37.7743
_cell_angle_alpha 90
_cell_angle_beta  90
_cell_angle_gamma 90
_cell_volume      53793.8

_symmetry_cell_setting          triclinic
_symmetry_space_group_name_Hall 'P 1'
_symmetry_space_group_name_H-M  'P 1'
_symmetry_Int_Tables_number     1

_symmetry_equiv_pos_as_xyz 'x,y,z'

loop_
_atom_site_label
_atom_site_type_symbol
_atom_site_fract_x
_atom_site_fract_y
_atom_site_fract_z
_atom_site_charge
C1       C      0.997870000000     0.068390000000     0.484340000000     0.485853   
C2       C      0.003580000000     0.934810000000     0.501340000000     0.485627   
C3       C      0.934230000000     0.998750000000     0.501580000000     0.483865   
C4       C      0.066690000000     0.003900000000     0.484100000000     0.490258   
C5       C      0.985190000000     0.438260000000     0.488270000000     0.472703   
C6       C      0.978390000000     0.567770000000     0.524650000000     0.477263   
C7       C      0.976640000000     0.520870000000     0.441820000000     0.482535   
C8       C      0.986960000000     0.486630000000     0.571160000000     0.482414   
C9       C      0.565870000000     0.996200000000     0.500230000000     0.475954   
C10      C      0.433560000000     0.991660000000     0.481220000000     0.475527   
C11      C      0.509150000000     0.004580000000     0.425670000000     0.483304   
C12      C      0.490450000000     0.982820000000     0.556810000000     0.48176    
C13      C      0.512620000000     0.010630000000     0.056840000000     0.472015   
C14      C      0.516740000000     0.998550000000     0.923190000000     0.475747   
C15      C      0.526130000000     0.070030000000     0.983930000000     0.48334    
C16      C      0.503140000000     0.937750000000     0.995320000000     0.482318   
C17      C      0.987780000000     0.506380000000     0.073690000000     0.472203   
C18      C      0.998630000000     0.490330000000     0.940910000000     0.475327   
C19      C      0.059090000000     0.490850000000     0.013240000000     0.479897   
C20      C      0.926420000000     0.506070000000     0.000500000000     0.479718   
C21      C      0.428390000000     0.487780000000     0.018880000000     0.470993   
C22      C      0.558380000000     0.519330000000     0.008760000000     0.470768   
C23      C      0.508040000000     0.438190000000     0.010330000000     0.471768   
C24      C      0.477650000000     0.569270000000     0.017150000000     0.472902   
C25      C      0.838720000000     0.550170000000     0.988260000000    -0.0336556  
C26      C      0.653680000000     0.514460000000     0.028610000000    -0.0323537  
C27      C      0.608090000000     0.543650000000     0.973610000000    -0.00236581 
C28      C      0.616250000000     0.526530000000     0.038020000000    -0.00132639 
C29      C      0.719780000000     0.505400000000     0.973280000000    -0.0561217  
C30      C      0.764690000000     0.548860000000     0.013110000000    -0.0565031  
C31      C      0.705180000000     0.531960000000     0.995170000000     0.0603846  
C32      C      0.646350000000     0.531890000000     0.967220000000    -0.0320283  
C33      C      0.779330000000     0.523600000000     0.989760000000     0.0610156  
C34      C      0.829920000000     0.491030000000     0.011860000000    -0.0806417  
C35      C      0.756430000000     0.501850000000     0.970190000000    -0.0533986  
C36      C      0.867130000000     0.479010000000     0.000980000000     0.17429    
C37      C      0.876840000000     0.541840000000     0.977470000000     0.0058084  
C38      C      0.728070000000     0.553350000000     0.015160000000    -0.054324   
C39      C      0.148920000000     0.447990000000     0.019350000000    -0.0338962  
C40      C      0.336020000000     0.492050000000     0.049300000000    -0.0325171  
C41      C      0.376090000000     0.459330000000     0.992010000000    -0.00203872 
C42      C      0.374560000000     0.480870000000     0.055430000000    -0.00147836 
C43      C      0.265540000000     0.498320000000     0.998870000000    -0.0559112  
C44      C      0.223230000000     0.454290000000     0.040860000000    -0.0560236  
C45      C      0.281650000000     0.472980000000     0.021120000000     0.0601879  
C46      C      0.337610000000     0.470970000000     0.988440000000    -0.0317422  
C47      C      0.207140000000     0.477760000000     0.016600000000     0.0609002  
C48      C      0.154100000000     0.510660000000     0.031890000000    -0.0809051  
C49      C      0.228780000000     0.499990000000     0.996130000000    -0.0529815  
C50      C      0.117480000000     0.519080000000     0.016750000000     0.174996   
C51      C      0.110900000000     0.452050000000     0.005850000000     0.00561845 
C52      C      0.260090000000     0.451560000000     0.042500000000    -0.054202   
C53      C      0.454880000000     0.850660000000     0.999320000000    -0.0337612  
C54      C      0.487430000000     0.662810000000     0.041920000000    -0.0324359  
C55      C      0.447790000000     0.621200000000     0.990380000000    -0.00179435 
C56      C      0.474790000000     0.625270000000     0.051390000000    -0.00122541 
C57      C      0.495510000000     0.729260000000     0.988140000000    -0.0561909  
C58      C      0.456050000000     0.777760000000     0.027970000000    -0.0563272  
C59      C      0.469620000000     0.716630000000     0.011800000000     0.0605225  
C60      C      0.460950000000     0.658900000000     0.983260000000    -0.0318538  
C61      C      0.480130000000     0.790400000000     0.002430000000     0.0609803  
C62      C      0.515400000000     0.841910000000     0.017660000000    -0.0810911  
C63      C      0.500080000000     0.765740000000     0.983070000000    -0.0531811  
C64      C      0.527400000000     0.877510000000     0.002000000000     0.174972   
C65      C      0.462830000000     0.887630000000     0.984310000000     0.00609691 
C66      C      0.450470000000     0.741220000000     0.032030000000    -0.0544701  
C67      C      0.561200000000     0.158560000000     0.004850000000    -0.0346016  
C68      C      0.521080000000     0.347530000000     0.971670000000    -0.03185    
C69      C      0.522720000000     0.382250000000     0.040790000000    -0.000678058
C70      C      0.502480000000     0.383210000000     0.976050000000    -0.00145682 
C71      C      0.554970000000     0.277980000000     0.978490000000    -0.0558397  
C72      C      0.515200000000     0.229730000000     0.018270000000    -0.0565654  
C73      C      0.529290000000     0.290730000000     0.002380000000     0.0603012  
C74      C      0.540830000000     0.346760000000     0.032530000000    -0.0323509  
C75      C      0.537760000000     0.217090000000     0.991410000000     0.0613277  
C76      C      0.503480000000     0.164310000000     0.976930000000    -0.079761   
C77      C      0.558540000000     0.241450000000     0.972630000000    -0.0534907  
C78      C      0.506410000000     0.127600000000     0.959790000000     0.173659   
C79      C      0.566520000000     0.121470000000     0.988700000000     0.00785841 
C80      C      0.510560000000     0.266250000000     0.023110000000    -0.0540287  
C81      C      0.484630000000     0.007390000000     0.650090000000    -0.0333756  
C82      C      0.540220000000     0.968390000000     0.832410000000    -0.0321332  
C83      C      0.490820000000     0.017120000000     0.866530000000    -0.00179461 
C84      C      0.549740000000     0.984730000000     0.868440000000    -0.000921429
C85      C      0.488470000000     0.958490000000     0.764460000000    -0.0561448  
C86      C      0.527930000000     0.995990000000     0.714260000000    -0.0563829  
C87      C      0.513700000000     0.983590000000     0.775780000000     0.0609734  
C88      C      0.484100000000     0.999570000000     0.830810000000    -0.0314143  
C89      C      0.499950000000     0.973990000000     0.703070000000     0.0610406  
C90      C      0.511360000000     0.948660000000     0.644990000000    -0.0801216  
C91      C      0.481290000000     0.954310000000     0.728390000000    -0.0533336  
C92      C      0.494090000000     0.942530000000     0.608550000000     0.174158   
C93      C      0.466820000000     0.003740000000     0.614070000000     0.00676853 
C94      C      0.534210000000     0.001190000000     0.750360000000    -0.0539693  
C95      C      0.498840000000     0.044380000000     0.336620000000    -0.0344221  
C96      C      0.478080000000     0.026160000000     0.148700000000    -0.0320601  
C97      C      0.544840000000     0.010600000000     0.113240000000    -0.000485265
C98      C      0.481810000000     0.034560000000     0.109160000000    -0.00209665 
C99      C      0.536180000000     0.048650000000     0.223140000000    -0.0544047  
C100     C      0.491040000000     0.003440000000     0.260520000000    -0.0558745  
C101     C      0.511610000000     0.028000000000     0.204480000000     0.0604547  
C102     C      0.537220000000     0.002180000000     0.152010000000    -0.0322881  
C103     C      0.516990000000     0.022980000000     0.278930000000     0.0609945  
C104     C      0.519550000000     0.983630000000     0.330550000000    -0.0798699  
C105     C      0.539030000000     0.045960000000     0.259900000000    -0.0536154  
C106     C      0.532660000000     0.982450000000     0.368900000000     0.173346   
C107     C      0.511210000000     0.046260000000     0.375220000000     0.00727871 
C108     C      0.489100000000     0.005110000000     0.223580000000    -0.0560022  
C109     C      0.026800000000     0.477030000000     0.662100000000    -0.03437    
C110     C      0.982170000000     0.456420000000     0.850360000000    -0.0322841  
C111     C      0.023250000000     0.512300000000     0.884640000000    -0.00223021 
C112     C      0.994670000000     0.451310000000     0.888590000000    -0.000833429
C113     C      0.977400000000     0.500870000000     0.776840000000    -0.0562885  
C114     C      0.017520000000     0.454000000000     0.735750000000    -0.0559185  
C115     C      0.001890000000     0.478100000000     0.793410000000     0.0615206  
C116     C      0.010090000000     0.514400000000     0.846500000000    -0.0312764  
C117     C      0.995470000000     0.479090000000     0.719000000000     0.0614292  
C118     C      0.965170000000     0.461330000000     0.665060000000    -0.0806425  
C119     C      0.974850000000     0.501760000000     0.739970000000    -0.0529565  
C120     C      0.957230000000     0.475990000000     0.627990000000     0.174773   
C121     C      0.023650000000     0.490860000000     0.624220000000     0.0068587  
C122     C      0.021110000000     0.454090000000     0.772580000000    -0.0543048  
C123     C      0.948520000000     0.513040000000     0.349580000000    -0.0341284  
C124     C      0.987030000000     0.550210000000     0.162760000000    -0.0322365  
C125     C      0.979950000000     0.479200000000     0.132330000000    -0.00079157 
C126     C      0.001250000000     0.543440000000     0.125500000000    -0.00142887 
C127     C      0.958810000000     0.546440000000     0.235290000000    -0.0561621  
C128     C      0.999540000000     0.505120000000     0.281350000000    -0.0566423  
C129     C      0.983580000000     0.522200000000     0.221360000000     0.0603681  
C130     C      0.965920000000     0.489860000000     0.168790000000    -0.0322802  
C131     C      0.976840000000     0.531330000000     0.295240000000     0.0610244  
C132     C      0.007570000000     0.538610000000     0.351730000000    -0.0797914  
C133     C      0.956060000000     0.551340000000     0.271870000000    -0.0535406  
C134     C      0.002210000000     0.551590000000     0.389820000000     0.173559   
C135     C      0.940650000000     0.525390000000     0.387410000000     0.00708521 
C136     C      0.003310000000     0.501220000000     0.244790000000    -0.0538881  
C137     C      0.155120000000     0.982990000000     0.447520000000    -0.0348119  
C138     C      0.342050000000     0.957050000000     0.465460000000    -0.0322704  
C139     C      0.377930000000     0.024720000000     0.477280000000     0.000427107
C140     C      0.381680000000     0.959850000000     0.457510000000    -0.0014085  
C141     C      0.269120000000     0.014820000000     0.438480000000    -0.0542188  
C142     C      0.230880000000     0.975710000000     0.488350000000    -0.055765   
C143     C      0.287030000000     0.991510000000     0.461160000000     0.0611239  
C144     C      0.339230000000     0.017970000000     0.485780000000    -0.0324744  
C145     C      0.213350000000     0.000660000000     0.466760000000     0.0620699  
C146     C      0.162280000000     0.008800000000     0.505870000000    -0.0797638  
C147     C      0.232720000000     0.019560000000     0.441450000000    -0.053514   
C148     C      0.124710000000     0.023990000000     0.505880000000     0.173776   
C149     C      0.117550000000     0.997410000000     0.444100000000     0.00863566 
C150     C      0.267560000000     0.971940000000     0.486290000000    -0.0558391  
C151     C      0.839750000000     0.990350000000     0.478020000000    -0.0338787  
C152     C      0.656160000000     0.025040000000     0.528450000000    -0.0320528  
C153     C      0.623040000000     0.969590000000     0.485630000000    -0.00216413 
C154     C      0.618900000000     0.031320000000     0.513980000000    -0.000491663
C155     C      0.729290000000     0.979140000000     0.534200000000    -0.056527   
C156     C      0.771300000000     0.024380000000     0.493220000000    -0.0563634  
C157     C      0.713290000000     0.002640000000     0.509990000000     0.0614532  
C158     C      0.660110000000     0.967020000000     0.501080000000    -0.0311796  
C159     C      0.787310000000     0.998100000000     0.514390000000     0.0613826  
C160     C      0.844540000000     0.016670000000     0.536520000000    -0.0806303  
C161     C      0.766050000000     0.976510000000     0.535780000000    -0.0535285  
C162     C      0.882580000000     0.003150000000     0.541140000000     0.17516    
C163     C      0.877450000000     0.976280000000     0.479440000000     0.00690423 
C164     C      0.734560000000     0.026060000000     0.490600000000    -0.0542937  
C165     C      0.981890000000     0.839750000000     0.488210000000    -0.0349413  
C166     C      0.013330000000     0.656220000000     0.540430000000    -0.0315994  
C167     C      0.944080000000     0.623300000000     0.532120000000    -0.000258885
C168     C      0.006650000000     0.618820000000     0.554490000000    -0.000762382
C169     C      0.006640000000     0.725690000000     0.504530000000    -0.0562511  
C170     C      0.974250000000     0.775900000000     0.548430000000    -0.0550675  
C171     C      0.985540000000     0.714150000000     0.533020000000     0.0615782  
C172     C      0.952820000000     0.660710000000     0.518460000000    -0.0328367  
C173     C      0.997600000000     0.787360000000     0.521660000000     0.0608775  
C174     C      0.006550000000     0.847120000000     0.546910000000    -0.0796447  
C175     C      0.013140000000     0.761880000000     0.499510000000    -0.052234   
C176     C      0.022410000000     0.883560000000     0.537650000000     0.173568   
C177     C      0.997330000000     0.875060000000     0.475560000000     0.00795127 
C178     C      0.968900000000     0.739600000000     0.554360000000    -0.0543382  
C179     C      0.986130000000     0.165250000000     0.502840000000    -0.0346656  
C180     C      0.024880000000     0.350810000000     0.466820000000    -0.0320485  
C181     C      0.955110000000     0.380690000000     0.480100000000    -0.00096921 
C182     C      0.017760000000     0.389920000000     0.458190000000    -0.00207365 
C183     C      0.021780000000     0.275480000000     0.487640000000    -0.0558191  
C184     C      0.976220000000     0.233100000000     0.447400000000    -0.0560407  
C185     C      0.996820000000     0.291800000000     0.465210000000     0.0603865  
C186     C      0.965240000000     0.342330000000     0.488820000000    -0.0323365  
C187     C      0.002340000000     0.216840000000     0.468500000000     0.061516   
C188     C      0.996660000000     0.157920000000     0.440270000000    -0.0794048  
C189     C      0.024910000000     0.238490000000     0.488550000000    -0.052965   
C190     C      0.008800000000     0.119170000000     0.444750000000     0.172691   
C191     C      0.998820000000     0.127680000000     0.511320000000     0.00744689 
C192     C      0.974100000000     0.270150000000     0.445310000000    -0.0541858  
H1       H      0.717360000000     0.573210000000     0.032930000000     0.0425768  
H2       H      0.828010000000     0.570660000000     0.969920000000     0.0351473  
H3       H      0.812240000000     0.467360000000     0.012120000000     0.0481465  
H4       H      0.607660000000     0.573070000000     0.976450000000     0.0337885  
H5       H      0.877540000000     0.537090000000     0.948430000000     0.0419678  
H6       H      0.670420000000     0.517300000000     0.052680000000     0.032789   
H7       H      0.657620000000     0.548160000000     0.945360000000     0.0340103  
H8       H      0.605620000000     0.508250000000     0.058560000000     0.0368801  
H9       H      0.877640000000     0.461720000000     0.022590000000    -0.00115361 
H10      H      0.781270000000     0.565260000000     0.029720000000     0.0393833  
H11      H      0.893400000000     0.565660000000     0.982830000000     0.036151   
H12      H      0.703180000000     0.487390000000     0.958460000000     0.0400566  
H13      H      0.839060000000     0.561430000000     0.015500000000     0.0350345  
H14      H      0.592080000000     0.536840000000     0.949890000000     0.037798   
H15      H      0.653480000000     0.485860000000     0.020900000000     0.0376497  
H16      H      0.645990000000     0.503560000000     0.958730000000     0.0364     
H17      H      0.767140000000     0.481590000000     0.952860000000     0.0471669  
H18      H      0.830490000000     0.502090000000     0.039220000000     0.0459597  
H19      H      0.617600000000     0.553630000000     0.049730000000     0.0345603  
H20      H      0.858040000000     0.434940000000     0.975690000000     0.136266   
H21      H      0.271970000000     0.432580000000     0.060470000000     0.0427728  
H22      H      0.161270000000     0.424960000000     0.005610000000     0.0349527  
H23      H      0.170980000000     0.534760000000     0.029250000000     0.0479762  
H24      H      0.376610000000     0.430300000000     0.997580000000     0.0333875  
H25      H      0.111020000000     0.449210000000     0.976540000000     0.0408067  
H26      H      0.321760000000     0.490190000000     0.075000000000     0.0331272  
H27      H      0.324350000000     0.453470000000     0.968750000000     0.0342086  
H28      H      0.387240000000     0.500400000000     0.073510000000     0.0359319  
H29      H      0.104800000000     0.539150000000     0.034470000000    -0.00203423 
H30      H      0.207670000000     0.437490000000     0.058050000000     0.0393667  
H31      H      0.094790000000     0.429790000000     0.016540000000     0.0354281  
H32      H      0.281090000000     0.516390000000     0.983000000000     0.0400287  
H33      H      0.148070000000     0.442120000000     0.048240000000     0.03456    
H34      H      0.389670000000     0.463560000000     0.966270000000     0.0377965  
H35      H      0.335030000000     0.520220000000     0.040240000000     0.0376868  
H36      H      0.337340000000     0.498730000000     0.978260000000     0.0370043  
H37      H      0.216980000000     0.518860000000     0.977980000000     0.0472371  
H38      H      0.152040000000     0.504410000000     0.060660000000     0.0460869  
H39      H      0.374840000000     0.454470000000     0.068680000000     0.0350429  
H40      H      0.126840000000     0.558920000000     0.985310000000     0.136007   
H41      H      0.431190000000     0.731950000000     0.051090000000     0.0427576  
H42      H      0.432450000000     0.838990000000     0.984240000000     0.0349939  
H43      H      0.538260000000     0.823270000000     0.017580000000     0.0482965  
H44      H      0.419690000000     0.622710000000     0.998820000000     0.0332243  
H45      H      0.463460000000     0.885820000000     0.954940000000     0.0411261  
H46      H      0.488620000000     0.678760000000     0.066720000000     0.0330881  
H47      H      0.442460000000     0.672060000000     0.964490000000     0.0342029  
H48      H      0.494810000000     0.612590000000     0.068840000000     0.0363648  
H49      H      0.546620000000     0.889660000000     0.020890000000    -0.00176441 
H50      H      0.441130000000     0.795830000000     0.044440000000     0.0393191  
H51      H      0.440680000000     0.905690000000     0.991410000000     0.0356662  
H52      H      0.511920000000     0.711170000000     0.973190000000     0.0402412  
H53      H      0.446670000000     0.853650000000     0.027470000000     0.0345841  
H54      H      0.448660000000     0.605780000000     0.965290000000     0.0379319  
H55      H      0.514540000000     0.661520000000     0.030500000000     0.0377668  
H56      H      0.487370000000     0.656980000000     0.970520000000     0.0372401  
H57      H      0.519490000000     0.774960000000     0.964110000000     0.0475174  
H58      H      0.507030000000     0.845580000000     0.045700000000     0.0459345  
H59      H      0.449650000000     0.627380000000     0.066480000000     0.0343963  
H60      H      0.568690000000     0.864320000000     0.974350000000     0.136231   
H61      H      0.491510000000     0.275570000000     0.042380000000     0.0427564  
H62      H      0.587570000000     0.171260000000     0.008020000000     0.0345929  
H63      H      0.486730000000     0.181640000000     0.959920000000     0.0495036  
H64      H      0.497940000000     0.376870000000     0.055680000000     0.0362475  
H65      H      0.582840000000     0.124050000000     0.964360000000     0.04514    
H66      H      0.507150000000     0.332160000000     0.950700000000     0.033968   
H67      H      0.541930000000     0.330850000000     0.057360000000     0.0328158  
H68      H      0.507230000000     0.399260000000     0.951790000000     0.0376803  
H69      H      0.479620000000     0.115260000000     0.960020000000     0.000677596
H70      H      0.499930000000     0.211600000000     0.034360000000     0.0396506  
H71      H      0.581270000000     0.104670000000     0.007910000000     0.0337731  
H72      H      0.571040000000     0.296010000000     0.963100000000     0.039954   
H73      H      0.548920000000     0.156080000000     0.031530000000     0.0369833  
H74      H      0.540250000000     0.398140000000     0.058360000000     0.0347342  
H75      H      0.548680000000     0.352470000000     0.962780000000     0.0357406  
H76      H      0.568440000000     0.351450000000     0.023460000000     0.0367474  
H77      H      0.576780000000     0.232110000000     0.952600000000     0.0460706  
H78      H      0.490020000000     0.161160000000     0.002940000000     0.0456177  
H79      H      0.473530000000     0.378460000000     0.977740000000     0.0338204  
H80      H      0.496950000000     0.137690000000     0.910190000000     0.136764   
H81      H      0.554390000000     0.019830000000     0.758610000000     0.0439853  
H82      H      0.467920000000     0.024690000000     0.667150000000     0.0354127  
H83      H      0.514800000000     0.922520000000     0.658370000000     0.0486498  
H84      H      0.500290000000     0.044710000000     0.861860000000     0.0375019  
H85      H      0.439140000000     0.994810000000     0.618340000000     0.0432511  
H86      H      0.565150000000     0.963160000000     0.817680000000     0.0344955  
H87      H      0.467020000000     0.017490000000     0.814770000000     0.0345534  
H88      H      0.563950000000     0.964500000000     0.884520000000     0.0391952  
H89      H      0.513240000000     0.927580000000     0.591700000000    -0.000861685
H90      H      0.543900000000     0.010370000000     0.695330000000     0.0399636  
H91      H      0.465650000000     0.030310000000     0.601250000000     0.0363632  
H92      H      0.473170000000     0.943360000000     0.783370000000     0.0409125  
H93      H      0.510620000000     0.020640000000     0.646200000000     0.0368457  
H94      H      0.465300000000     0.019070000000     0.880930000000     0.0392635  
H95      H      0.526380000000     0.942560000000     0.836380000000     0.0396319  
H96      H      0.469620000000     0.974220000000     0.835350000000     0.0375067  
H97      H      0.460400000000     0.936470000000     0.720160000000     0.0472193  
H98      H      0.538030000000     0.960630000000     0.641360000000     0.0461717  
H99      H      0.568020000000     0.007450000000     0.864070000000     0.0383062  
H100     H      0.470220000000     0.897290000000     0.615150000000     0.137039   
H101     H      0.470190000000     0.988280000000     0.210210000000     0.0389865  
H102     H      0.500110000000     0.071650000000     0.325220000000     0.0345664  
H103     H      0.535910000000     0.965320000000     0.314180000000     0.0490798  
H104     H      0.560870000000     0.035340000000     0.111820000000     0.0355827  
H105     H      0.537130000000     0.060130000000     0.376180000000     0.0440366  
H106     H      0.459230000000     0.045420000000     0.160660000000     0.0332616  
H107     H      0.562740000000     0.002790000000     0.166650000000     0.0336929  
H108     H      0.456540000000     0.027830000000     0.095720000000     0.037164   
H109     H      0.526650000000     0.955450000000     0.379550000000     0.00085365 
H110     H      0.472950000000     0.986100000000     0.274380000000     0.0390801  
H111     H      0.491920000000     0.062420000000     0.390530000000     0.034286   
H112     H      0.553970000000     0.066110000000     0.208920000000     0.0435991  
H113     H      0.470880000000     0.035230000000     0.335500000000     0.0370368  
H114     H      0.561050000000     0.988630000000     0.102050000000     0.0362699  
H115     H      0.466840000000     0.998960000000     0.151400000000     0.0351962  
H116     H      0.526010000000     0.974890000000     0.154460000000     0.0372089  
H117     H      0.558830000000     0.061500000000     0.273630000000     0.0461279  
H118     H      0.491800000000     0.973870000000     0.330030000000     0.0447898  
H119     H      0.485880000000     0.063670000000     0.106050000000     0.0337412  
H120     H      0.580770000000     0.965020000000     0.363890000000     0.136773   
H121     H      0.039240000000     0.435640000000     0.784990000000     0.0436266  
H122     H      0.048640000000     0.491580000000     0.675500000000     0.0352067  
H123     H      0.940650000000     0.462740000000     0.681290000000     0.04898    
H124     H      0.051530000000     0.504310000000     0.884310000000     0.0381516  
H125     H      0.025980000000     0.520350000000     0.624680000000     0.039571   
H126     H      0.979940000000     0.429750000000     0.837780000000     0.034134   
H127     H      0.028830000000     0.531020000000     0.830950000000     0.0352124  
H128     H      0.973780000000     0.436870000000     0.903490000000     0.0395627  
H129     H      0.939820000000     0.456540000000     0.614030000000    -0.00291748 
H130     H      0.032810000000     0.435120000000     0.720560000000     0.0396156  
H131     H      0.046490000000     0.480680000000     0.608710000000     0.0350368  
H132     H      0.960950000000     0.518660000000     0.792110000000     0.0410981  
H133     H      0.033830000000     0.448290000000     0.661220000000     0.0343985  
H134     H      0.021830000000     0.539280000000     0.896570000000     0.0409567  
H135     H      0.955530000000     0.469020000000     0.850130000000     0.0399291  
H136     H      0.983840000000     0.527730000000     0.846570000000     0.0373869  
H137     H      0.956990000000     0.520490000000     0.727570000000     0.0484615  
H138     H      0.973000000000     0.432820000000     0.663340000000     0.0454375  
H139     H      0.018780000000     0.434430000000     0.888500000000     0.036535   
H140     H      0.914260000000     0.503380000000     0.635330000000     0.136461   
H141     H      0.021680000000     0.481680000000     0.234560000000     0.0426958  
H142     H      0.923210000000     0.512470000000     0.334600000000     0.0343181  
H143     H      0.026340000000     0.556730000000     0.337980000000     0.0492692  
H144     H      0.005000000000     0.464170000000     0.135820000000     0.0361579  
H145     H      0.925920000000     0.550930000000     0.386200000000     0.044641   
H146     H      0.003210000000     0.571470000000     0.175310000000     0.0339529  
H147     H      0.965820000000     0.465760000000     0.185910000000     0.03282    
H148     H      0.995290000000     0.567070000000     0.108840000000     0.0375079  
H149     H      0.027790000000     0.548500000000     0.404140000000     0.00111301 
H150     H      0.014820000000     0.488040000000     0.298520000000     0.0396541  
H151     H      0.923350000000     0.505320000000     0.400320000000     0.0352611  
H152     H      0.942050000000     0.562100000000     0.218150000000     0.0397768  
H153     H      0.959510000000     0.485560000000     0.350080000000     0.0370712  
H154     H      0.960540000000     0.460970000000     0.119680000000     0.035386   
H155     H      0.959320000000     0.559870000000     0.160540000000     0.035564   
H156     H      0.938220000000     0.499600000000     0.166530000000     0.0368472  
H157     H      0.937670000000     0.570830000000     0.282140000000     0.045583   
H158     H      0.019700000000     0.511690000000     0.352890000000     0.0452576  
H159     H      0.030490000000     0.541030000000     0.126930000000     0.0338406  
H160     H      0.014550000000     0.601660000000     0.386430000000     0.137197   
H161     H      0.280490000000     0.954220000000     0.504710000000     0.0404475  
H162     H      0.166630000000     0.980930000000     0.420470000000     0.0353264  
H163     H      0.179500000000     0.025890000000     0.522650000000     0.0501421  
H164     H      0.379740000000     0.039020000000     0.451560000000     0.0353173  
H165     H      0.118140000000     0.021960000000     0.427710000000     0.0457796  
H166     H      0.330130000000     0.937190000000     0.447180000000     0.0339368  
H167     H      0.324910000000     0.043740000000     0.483530000000     0.0343374  
H168     H      0.394720000000     0.934730000000     0.465900000000     0.038655   
H169     H      0.113580000000     0.020100000000     0.532970000000     0.00248458 
H170     H      0.216610000000     0.959940000000     0.507540000000     0.0405684  
H171     H      0.101300000000     0.977350000000     0.429840000000     0.0369107  
H172     H      0.283740000000     0.030420000000     0.419340000000     0.0440241  
H173     H      0.154620000000     0.955860000000     0.459350000000     0.0398401  
H174     H      0.388900000000     0.042510000000     0.498090000000     0.0373451  
H175     H      0.338780000000     0.947310000000     0.493090000000     0.0371778  
H176     H      0.336470000000     0.008330000000     0.513540000000     0.0389656  
H177     H      0.219550000000     0.038450000000     0.424300000000     0.0469864  
H178     H      0.161500000000     0.981790000000     0.517900000000     0.0463355  
H179     H      0.385270000000     0.962240000000     0.428390000000     0.0338235  
H180     H      0.131960000000     0.073070000000     0.520390000000     0.139041   
H181     H      0.722590000000     0.045040000000     0.472690000000     0.0440647  
H182     H      0.823780000000     0.972270000000     0.461030000000     0.0354175  
H183     H      0.831920000000     0.018720000000     0.563070000000     0.0485536  
H184     H      0.625160000000     0.975650000000     0.456890000000     0.0392147  
H185     H      0.876590000000     0.947590000000     0.486490000000     0.0415295  
H186     H      0.669330000000     0.051320000000     0.531550000000     0.0332653  
H187     H      0.676310000000     0.949710000000     0.483530000000     0.0345346  
H188     H      0.602920000000     0.044960000000     0.534640000000     0.0352825  
H189     H      0.898030000000     0.024300000000     0.554940000000    -0.00191688 
H190     H      0.787000000000     0.042550000000     0.477590000000     0.039782   
H191     H      0.889150000000     0.978290000000     0.452520000000     0.0361419  
H192     H      0.713610000000     0.961760000000     0.550730000000     0.0401454  
H193     H      0.840200000000     0.017140000000     0.465530000000     0.0361463  
H194     H      0.610200000000     0.943110000000     0.488050000000     0.0390196  
H195     H      0.654740000000     0.012240000000     0.555010000000     0.0366161  
H196     H      0.658390000000     0.954240000000     0.527610000000     0.0356067  
H197     H      0.778040000000     0.956930000000     0.553030000000     0.0472809  
H198     H      0.844850000000     0.043750000000     0.524570000000     0.0457564  
H199     H      0.620600000000     0.049460000000     0.490800000000     0.0383992  
H200     H      0.880770000000     0.979500000000     0.586840000000     0.13672    
H201     H      0.951800000000     0.731190000000     0.575760000000     0.0442693  
H202     H      0.979770000000     0.821750000000     0.464900000000     0.0347221  
H203     H      0.022940000000     0.834370000000     0.567820000000     0.0501156  
H204     H      0.931370000000     0.625670000000     0.558550000000     0.0376734  
H205     H      0.022060000000     0.869680000000     0.460600000000     0.0434671  
H206     H      0.033550000000     0.669250000000     0.557440000000     0.0348991  
H207     H      0.928280000000     0.676980000000     0.519310000000     0.0350073  
H208     H      0.031380000000     0.603030000000     0.552420000000     0.0387848  
H209     H      0.018310000000     0.901420000000     0.560880000000     0.00220416 
H210     H      0.960610000000     0.794680000000     0.565220000000     0.0406701  
H211     H      0.978180000000     0.887490000000     0.456980000000     0.0356748  
H212     H      0.018660000000     0.706920000000     0.486510000000     0.0414328  
H213     H      0.954830000000     0.843940000000     0.499030000000     0.0391806  
H214     H      0.924910000000     0.610620000000     0.513720000000     0.0389281  
H215     H      0.024080000000     0.653820000000     0.513120000000     0.0390379  
H216     H      0.961850000000     0.659130000000     0.490440000000     0.0415062  
H217     H      0.030280000000     0.770210000000     0.478100000000     0.0454238  
H218     H      0.979580000000     0.851440000000     0.557850000000     0.0466186  
H219     H      0.999850000000     0.620820000000     0.583060000000     0.0361752  
H220     H      0.070720000000     0.879330000000     0.554630000000     0.137579   
H221     H      0.954120000000     0.282160000000     0.428640000000     0.0424727  
H222     H      0.991070000000     0.182160000000     0.526530000000     0.0339519  
H223     H      0.009740000000     0.169540000000     0.416540000000     0.0503901  
H224     H      0.941210000000     0.381130000000     0.454170000000     0.0346945  
H225     H      0.026190000000     0.129140000000     0.521920000000     0.0452576  
H226     H      0.045190000000     0.340530000000     0.448140000000     0.0340526  
H227     H      0.940980000000     0.325710000000     0.486960000000     0.0328316  
H228     H      0.042020000000     0.405560000000     0.463880000000     0.0376618  
H229     H      0.996250000000     0.103180000000     0.423260000000     0.000536506
H230     H      0.957500000000     0.217500000000     0.432390000000     0.0392841  
H231     H      0.981730000000     0.116550000000     0.532580000000     0.0340428  
H232     H      0.038990000000     0.290960000000     0.504450000000     0.0400546  
H233     H      0.957140000000     0.165180000000     0.497710000000     0.0363562  
H234     H      0.936330000000     0.390260000000     0.500650000000     0.0368839  
H235     H      0.035650000000     0.349400000000     0.494200000000     0.0365014  
H236     H      0.975320000000     0.340650000000     0.516490000000     0.0377846  
H237     H      0.044580000000     0.226490000000     0.505600000000     0.0457985  
H238     H      0.967630000000     0.157970000000     0.435520000000     0.0436666  
H239     H      0.012380000000     0.392250000000     0.429340000000     0.0332654  
H240     H      0.051140000000     0.116900000000     0.415660000000     0.138927   
N1       N      0.890740000000     0.509860000000     0.995530000000    -0.195032   
N2       N      0.817040000000     0.517700000000     0.986590000000    -0.100085   
N3       N      0.667430000000     0.536600000000     0.999700000000    -0.113083   
N4       N      0.593520000000     0.527740000000     0.006260000000    -0.180936   
N5       N      0.095050000000     0.486900000000     0.014800000000    -0.195213   
N6       N      0.169170000000     0.480630000000     0.012290000000    -0.0996439  
N7       N      0.319630000000     0.468410000000     0.022980000000    -0.113201   
N8       N      0.393650000000     0.478060000000     0.021500000000    -0.181221   
N9       N      0.497180000000     0.901860000000     0.996570000000    -0.195715   
N10      N      0.486300000000     0.827860000000     0.996210000000    -0.0998019  
N11      N      0.462690000000     0.679120000000     0.016670000000    -0.113465   
N12      N      0.468420000000     0.604380000000     0.018990000000    -0.181764   
N13      N      0.532200000000     0.105520000000     0.979230000000    -0.196466   
N14      N      0.538870000000     0.180050000000     0.981280000000    -0.100433   
N15      N      0.520380000000     0.328010000000     0.005390000000    -0.112868   
N16      N      0.513790000000     0.402330000000     0.008350000000    -0.181243   
N17      N      0.485150000000     0.977010000000     0.592150000000    -0.195972   
N18      N      0.488860000000     0.972070000000     0.666490000000    -0.100708   
N19      N      0.517880000000     0.993320000000     0.812570000000    -0.112839   
N20      N      0.517990000000     0.997830000000     0.887010000000    -0.179989   
N21      N      0.515410000000     0.010340000000     0.390450000000    -0.195983   
N22      N      0.521940000000     0.020170000000     0.316790000000    -0.100456   
N23      N      0.512720000000     0.028820000000     0.166190000000    -0.112978   
N24      N      0.512050000000     0.015890000000     0.092710000000    -0.18134    
N25      N      0.989800000000     0.481380000000     0.606920000000    -0.195785   
N26      N      0.993350000000     0.482700000000     0.680950000000    -0.0999249  
N27      N      0.007850000000     0.478440000000     0.831210000000    -0.112973   
N28      N      0.003240000000     0.485730000000     0.905300000000    -0.180272   
N29      N      0.973820000000     0.530980000000     0.407150000000    -0.196148   
N30      N      0.973490000000     0.537780000000     0.332830000000    -0.100735   
N31      N      0.988960000000     0.517340000000     0.183760000000    -0.112926   
N32      N      0.986950000000     0.510460000000     0.109670000000    -0.181463   
N33      N      0.102380000000     0.006140000000     0.479090000000    -0.194897   
N34      N      0.175910000000     0.007440000000     0.469410000000    -0.100122   
N35      N      0.325160000000     0.991940000000     0.460580000000    -0.112978   
N36      N      0.398050000000     0.991170000000     0.474600000000    -0.181547   
N37      N      0.898640000000     0.995160000000     0.506370000000    -0.196776   
N38      N      0.824900000000     0.991780000000     0.514000000000    -0.100494   
N39      N      0.675730000000     0.002720000000     0.503430000000    -0.112609   
N40      N      0.601840000000     0.997850000000     0.502650000000    -0.181096   
N41      N      0.005630000000     0.898740000000     0.505660000000    -0.195401   
N42      N      0.005320000000     0.824470000000     0.515130000000    -0.100194   
N43      N      0.980240000000     0.676910000000     0.540890000000    -0.11304    
N44      N      0.976740000000     0.602310000000     0.535650000000    -0.180613   
N45      N      0.998780000000     0.104490000000     0.479720000000    -0.195255   
N46      N      0.005650000000     0.178640000000     0.472080000000    -0.100007   
N47      N      0.992040000000     0.329980000000     0.463540000000    -0.113178   
N48      N      0.986760000000     0.403480000000     0.477740000000    -0.181655   
O1       O      0.995830000000     0.047690000000     0.457320000000    -0.555318   
O2       O      0.998010000000     0.947660000000     0.470360000000    -0.561572   
O3       O      0.947240000000     0.996410000000     0.470280000000    -0.564487   
O4       O      0.046440000000     0.997950000000     0.457490000000    -0.559458   
O5       O      0.053640000000     0.008540000000     0.515150000000    -0.55603    
O6       O      0.954450000000     0.003200000000     0.528530000000    -0.555413   
O7       O      0.007710000000     0.955560000000     0.528080000000    -0.554747   
O8       O      0.000540000000     0.055470000000     0.515690000000    -0.558876   
O9       O      0.955210000000     0.451980000000     0.496380000000    -0.55881    
O10      O      0.949770000000     0.550050000000     0.519720000000    -0.551563   
O11      O      0.948750000000     0.512360000000     0.459250000000    -0.557509   
O12      O      0.956260000000     0.489210000000     0.556840000000    -0.549631   
O13      O      0.015020000000     0.491150000000     0.552570000000    -0.561182   
O14      O      0.007090000000     0.520280000000     0.456790000000    -0.559483   
O15      O      0.008640000000     0.553150000000     0.519860000000    -0.558227   
O16      O      0.013500000000     0.457090000000     0.489450000000    -0.557728   
O17      O      0.550960000000     0.966410000000     0.493030000000    -0.559444   
O18      O      0.451710000000     0.962820000000     0.479360000000    -0.55549    
O19      O      0.508350000000     0.972630000000     0.437580000000    -0.559611   
O20      O      0.495290000000     0.956330000000     0.535870000000    -0.553991   
O21      O      0.490280000000     0.014760000000     0.544820000000    -0.561388   
O22      O      0.504890000000     0.031140000000     0.446690000000    -0.557153   
O23      O      0.448620000000     0.021350000000     0.488410000000    -0.563515   
O24      O      0.547420000000     0.024670000000     0.503650000000    -0.558489   
O25      O      0.541990000000     0.003280000000     0.041490000000    -0.558565   
O26      O      0.545170000000     0.994160000000     0.941340000000    -0.550759   
O27      O      0.552280000000     0.048560000000     0.987710000000    -0.555365   
O28      O      0.535010000000     0.949430000000     0.995860000000    -0.553478   
O29      O      0.477010000000     0.959400000000     0.992500000000    -0.559161   
O30      O      0.494280000000     0.058380000000     0.983730000000    -0.561764   
O31      O      0.487260000000     0.004930000000     0.938680000000    -0.559291   
O32      O      0.484120000000     0.014120000000     0.038650000000    -0.557804   
O33      O      0.985880000000     0.475060000000     0.060210000000    -0.557549   
O34      O      0.991700000000     0.463360000000     0.960570000000    -0.554426   
O35      O      0.038870000000     0.463350000000     0.013660000000    -0.554857   
O36      O      0.939290000000     0.475120000000     0.006920000000    -0.551596   
O37      O      0.946900000000     0.533210000000     0.997810000000    -0.556687   
O38      O      0.045870000000     0.522150000000     0.010190000000    -0.552268   
O39      O      0.002140000000     0.521420000000     0.954550000000    -0.554792   
O40      O      0.991670000000     0.533740000000     0.053710000000    -0.558451   
O41      O      0.442500000000     0.491350000000     0.988180000000    -0.557091   
O42      O      0.539140000000     0.517870000000     0.980720000000    -0.554175   
O43      O      0.502900000000     0.455990000000     0.981780000000    -0.55949    
O44      O      0.477580000000     0.553340000000     0.987090000000    -0.558503   
O45      O      0.485880000000     0.552380000000     0.045550000000    -0.555389   
O46      O      0.506390000000     0.453530000000     0.040710000000    -0.554202   
O47      O      0.544810000000     0.513190000000     0.039310000000    -0.5565     
O48      O      0.446810000000     0.492640000000     0.047080000000    -0.553198   
O49      O      0.865310000000     0.459490000000     0.969320000000    -0.275798   
O50      O      0.121050000000     0.533320000000     0.982540000000    -0.274632   
O51      O      0.544010000000     0.871660000000     0.969240000000    -0.27496    
O52      O      0.517930000000     0.131250000000     0.924620000000    -0.279243   
O53      O      0.463010000000     0.922550000000     0.612600000000    -0.276541   
O54      O      0.569340000000     0.988070000000     0.369640000000    -0.278783   
O55      O      0.939590000000     0.508740000000     0.631100000000    -0.273633   
O56      O      0.992530000000     0.587640000000     0.389540000000    -0.279364   
O57      O      0.125900000000     0.060500000000     0.498080000000    -0.271703   
O58      O      0.882540000000     0.972020000000     0.561690000000    -0.276005   
O59      O      0.058780000000     0.879850000000     0.531230000000    -0.278291   
O60      O      0.045720000000     0.117380000000     0.441380000000    -0.270989   
V1       V      0.996540000000     0.997220000000     0.461540000000     1.4038     
V2       V      0.004350000000     0.005950000000     0.524210000000     1.39855    
V3       V      0.950130000000     0.500720000000     0.508190000000     1.39051    
V4       V      0.013420000000     0.505450000000     0.504450000000     1.39741    
V5       V      0.501590000000     0.962180000000     0.486200000000     1.39564    
V6       V      0.497730000000     0.025310000000     0.496280000000     1.39941    
V7       V      0.545930000000     0.998450000000     0.991670000000     1.38999    
V8       V      0.483340000000     0.009470000000     0.988430000000     1.39814    
V9       V      0.988660000000     0.466880000000     0.010650000000     1.38735    
V10      V      0.996800000000     0.529980000000     0.003830000000     1.39373    
V11      V      0.490450000000     0.504790000000     0.982090000000     1.39262    
V12      V      0.496150000000     0.502870000000     0.045530000000     1.38134    


