data_structure

_audit_creation_method RASPA-1.0
_audit_creation_date 2023-5-25
_audit_author_name 'Poobodin Mano'

_cell_length_a    37.9262
_cell_length_b    38.1046
_cell_length_c    37.9528
_cell_angle_alpha 90
_cell_angle_beta  90
_cell_angle_gamma 90
_cell_volume      54848

_symmetry_cell_setting          triclinic
_symmetry_space_group_name_Hall 'P 1'
_symmetry_space_group_name_H-M  'P 1'
_symmetry_Int_Tables_number     1

_symmetry_equiv_pos_as_xyz 'x,y,z'

loop_
_atom_site_label
_atom_site_type_symbol
_atom_site_fract_x
_atom_site_fract_y
_atom_site_fract_z
_atom_site_charge
C1       C      0.998880000000     0.056160000000     0.500650000000     0.481359   
C2       C      0.999800000000     0.923630000000     0.489070000000     0.489682   
C3       C      0.932400000000     0.989700000000     0.486830000000     0.482435   
C4       C      0.065090000000     0.989160000000     0.502390000000     0.490651   
C5       C      0.988210000000     0.423780000000     0.500830000000     0.472284   
C6       C      0.989720000000     0.556240000000     0.488520000000     0.473068   
C7       C      0.987250000000     0.483480000000     0.429070000000     0.474483   
C8       C      0.990440000000     0.495340000000     0.561910000000     0.473474   
C9       C      0.432230000000     0.009840000000     0.508420000000     0.473947   
C10      C      0.564250000000     0.008870000000     0.488140000000     0.475353   
C11      C      0.488130000000     0.002990000000     0.431630000000     0.472343   
C12      C      0.508430000000     0.015920000000     0.563100000000     0.477335   
C13      C      0.486950000000     0.984860000000     0.062520000000     0.476772   
C14      C      0.486370000000     0.992520000000     0.929080000000     0.475262   
C15      C      0.491240000000     0.055660000000     0.998120000000     0.47725    
C16      C      0.482340000000     0.923090000000     0.991670000000     0.4767     
C17      C      0.008720000000     0.502130000000     0.062650000000     0.491709   
C18      C      0.989600000000     0.507510000000     0.930630000000     0.479195   
C19      C      0.065530000000     0.501110000000     0.987780000000     0.479774   
C20      C      0.933290000000     0.508180000000     0.006650000000     0.48363    
C21      C      0.507120000000     0.423390000000     0.997840000000     0.473019   
C22      C      0.493410000000     0.555720000000     0.994400000000     0.478859   
C23      C      0.434080000000     0.482120000000     0.987350000000     0.47319    
C24      C      0.565840000000     0.496900000000     0.004450000000     0.480412   
C25      C      0.838300000000     0.485190000000     0.001810000000    -0.0291805  
C26      C      0.653740000000     0.510960000000     0.047780000000    -0.029837   
C27      C      0.624650000000     0.499080000000     0.977580000000    -0.00120445 
C28      C      0.614640000000     0.518810000000     0.041220000000    -0.00296923 
C29      C      0.732150000000     0.537240000000     0.997220000000    -0.0503646  
C30      C      0.766240000000     0.493390000000     0.045280000000    -0.0508402  
C31      C      0.711950000000     0.515750000000     0.019410000000     0.063869   
C32      C      0.662570000000     0.490750000000     0.988080000000    -0.0307771  
C33      C      0.786420000000     0.515010000000     0.023210000000     0.0677414  
C34      C      0.843340000000     0.545930000000     0.019780000000    -0.0205666  
C35      C      0.768970000000     0.536460000000     0.998490000000    -0.0552428  
C36      C      0.882450000000     0.541760000000     0.029570000000    -0.00874852 
C37      C      0.876550000000     0.477320000000     0.011710000000     0.00262141 
C38      C      0.729450000000     0.493120000000     0.043020000000    -0.0540587  
C39      C      0.159350000000     0.525140000000     0.966690000000    -0.0277356  
C40      C      0.340500000000     0.475850000000     0.012320000000    -0.0317591  
C41      C      0.382030000000     0.483770000000     0.948180000000    -0.00104549 
C42      C      0.377450000000     0.460110000000     0.010410000000    -0.00166652 
C43      C      0.265360000000     0.466710000000     0.953070000000    -0.051131   
C44      C      0.235330000000     0.512690000000     0.001870000000    -0.0504261  
C45      C      0.287240000000     0.484600000000     0.976820000000     0.0620129  
C46      C      0.344860000000     0.499010000000     0.952770000000    -0.0324325  
C47      C      0.213300000000     0.493150000000     0.979630000000     0.066847   
C48      C      0.155990000000     0.462860000000     0.977430000000    -0.021485   
C49      C      0.228800000000     0.471400000000     0.953860000000    -0.055184   
C50      C      0.119130000000     0.465120000000     0.993750000000    -0.00909028 
C51      C      0.122410000000     0.531590000000     0.981820000000    -0.00126932 
C52      C      0.271950000000     0.509160000000     0.000030000000    -0.0530022  
C53      C      0.465160000000     0.646830000000     0.017630000000    -0.0290219  
C54      C      0.511900000000     0.830490000000     0.986120000000    -0.0329545  
C55      C      0.445870000000     0.869480000000     0.990520000000     0.000465864
C56      C      0.510490000000     0.868160000000     0.972630000000     0.000556404
C57      C      0.459410000000     0.754740000000     0.964070000000    -0.0524366  
C58      C      0.499700000000     0.724250000000     0.017520000000    -0.0517801  
C59      C      0.477690000000     0.776320000000     0.987740000000     0.0628503  
C60      C      0.450390000000     0.831710000000     0.003690000000    -0.0324605  
C61      C      0.483160000000     0.702670000000     0.992600000000     0.0626447  
C62      C      0.491840000000     0.647640000000     0.959800000000    -0.02365    
C63      C      0.461490000000     0.718200000000     0.966780000000    -0.0544163  
C64      C      0.508290000000     0.611180000000     0.964430000000    -0.0136686  
C65      C      0.480180000000     0.610480000000     0.026030000000    -0.00051834 
C66      C      0.496450000000     0.760700000000     0.015670000000    -0.0541676  
C67      C      0.531690000000     0.145250000000     0.997940000000    -0.0288808  
C68      C      0.492890000000     0.331360000000     0.025660000000    -0.0326312  
C69      C      0.528550000000     0.369310000000     0.969200000000    -0.00176952 
C70      C      0.506380000000     0.368620000000     0.032410000000    -0.000485393
C71      C      0.529390000000     0.254810000000     0.021470000000    -0.05261    
C72      C      0.481940000000     0.224530000000     0.974160000000    -0.051857   
C73      C      0.510100000000     0.276470000000     0.998680000000     0.0614849  
C74      C      0.514870000000     0.331730000000     0.965640000000    -0.032253   
C75      C      0.502360000000     0.202760000000     0.995850000000     0.0623943  
C76      C      0.469810000000     0.150300000000     0.012350000000    -0.0239899  
C77      C      0.525140000000     0.218380000000     0.020680000000    -0.0549362  
C78      C      0.461380000000     0.113320000000     0.998510000000    -0.0119818  
C79      C      0.527410000000     0.107540000000     0.984900000000    -0.00172536 
C80      C      0.485140000000     0.261020000000     0.975950000000    -0.0540151  
C81      C      0.514530000000     0.986470000000     0.654620000000    -0.0273121  
C82      C      0.463670000000     0.020350000000     0.838050000000    -0.0315231  
C83      C      0.515370000000     0.975980000000     0.873550000000    -0.00129669 
C84      C      0.454250000000     0.003440000000     0.873540000000    -0.00169854 
C85      C      0.470700000000     0.990650000000     0.757280000000    -0.0524959  
C86      C      0.523950000000     0.036040000000     0.734690000000    -0.0500462  
C87      C      0.492290000000     0.007050000000     0.782310000000     0.0628051  
C88      C      0.521820000000     0.993770000000     0.838140000000    -0.0317376  
C89      C      0.504020000000     0.017690000000     0.709660000000     0.0630286  
C90      C      0.492040000000     0.046340000000     0.653730000000    -0.0230157  
C91      C      0.475930000000     0.996400000000     0.721290000000    -0.0549332  
C92      C      0.507490000000     0.052930000000     0.616700000000    -0.0116309  
C93      C      0.531390000000     0.990610000000     0.618410000000    -0.00190225 
C94      C      0.517780000000     0.031390000000     0.770710000000    -0.0543937  
C95      C      0.451910000000     0.982430000000     0.153820000000    -0.0277057  
C96      C      0.497320000000     0.021380000000     0.336140000000    -0.0322869  
C97      C      0.467710000000     0.966990000000     0.381440000000    -0.00225606 
C98      C      0.484930000000     0.031040000000     0.373240000000    -0.000904378
C99      C      0.459400000000     0.010770000000     0.262390000000    -0.052404   
C100     C      0.503760000000     0.960390000000     0.232670000000    -0.0504777  
C101     C      0.478940000000     0.988730000000     0.284630000000     0.061899   
C102     C      0.479650000000     0.960740000000     0.343370000000    -0.0319545  
C103     C      0.483330000000     0.981670000000     0.210470000000     0.0627993  
C104     C      0.514580000000     0.994740000000     0.156070000000    -0.0235024  
C105     C      0.462070000000     0.007940000000     0.225780000000    -0.0548656  
C106     C      0.520400000000     0.980860000000     0.118380000000    -0.0107928  
C107     C      0.454330000000     0.968380000000     0.116210000000    -0.00171313 
C108     C      0.502230000000     0.964230000000     0.269300000000    -0.0544764  
C109     C      0.982390000000     0.475240000000     0.839260000000    -0.0277179  
C110     C      0.018470000000     0.517120000000     0.653690000000    -0.0326235  
C111     C      0.960730000000     0.481450000000     0.617560000000    -0.00135326 
C112     C      0.024690000000     0.502320000000     0.616640000000    -0.000307066
C113     C      0.013200000000     0.481680000000     0.731560000000    -0.0516369  
C114     C      0.965560000000     0.529020000000     0.761390000000    -0.0521591  
C115     C      0.991410000000     0.501680000000     0.709530000000     0.0613102  
C116     C      0.957960000000     0.496840000000     0.654520000000    -0.0321038  
C117     C      0.985820000000     0.507480000000     0.783420000000     0.0667646  
C118     C      0.001500000000     0.536100000000     0.838360000000    -0.0210691  
C119     C      0.011070000000     0.484990000000     0.768160000000    -0.0568767  
C120     C      0.987680000000     0.542580000000     0.875900000000    -0.0081081  
C121     C      0.967930000000     0.478590000000     0.876630000000    -0.000393091
C122     C      0.968760000000     0.526780000000     0.724790000000    -0.0529471  
C123     C      0.006230000000     0.464090000000     0.151660000000    -0.0273304  
C124     C      0.964110000000     0.501020000000     0.336600000000    -0.0327669  
C125     C      0.015420000000     0.459500000000     0.375810000000    -0.0013678  
C126     C      0.954380000000     0.486420000000     0.372980000000    -0.000493522
C127     C      0.971380000000     0.468490000000     0.258180000000    -0.0506986  
C128     C      0.026040000000     0.511080000000     0.233620000000    -0.0519005  
C129     C      0.993870000000     0.484850000000     0.282420000000     0.0617877  
C130     C      0.022550000000     0.474810000000     0.339430000000    -0.0317914  
C131     C      0.004800000000     0.493150000000     0.209370000000     0.0682759  
C132     C      0.997390000000     0.527120000000     0.155830000000    -0.0220766  
C133     C      0.976190000000     0.473130000000     0.222000000000    -0.0561295  
C134     C      0.014160000000     0.533360000000     0.119470000000    -0.00454115 
C135     C      0.023460000000     0.467220000000     0.115500000000     0.00112155 
C136     C      0.020240000000     0.507700000000     0.269790000000    -0.0520063  
C137     C      0.153700000000     0.991830000000     0.545490000000    -0.026935   
C138     C      0.337710000000     0.031380000000     0.499450000000    -0.0325754  
C139     C      0.381750000000     0.981990000000     0.538220000000    -0.0016405  
C140     C      0.375510000000     0.041660000000     0.509380000000    -0.000783955
C141     C      0.262820000000     0.023160000000     0.541710000000    -0.0508012  
C142     C      0.235300000000     0.972000000000     0.496800000000    -0.0519143  
C143     C      0.285880000000     0.002090000000     0.522070000000     0.0618344  
C144     C      0.343750000000     0.974350000000     0.527510000000    -0.0319939  
C145     C      0.212230000000     0.992360000000     0.517160000000     0.0682733  
C146     C      0.159690000000     0.005440000000     0.483490000000    -0.0222291  
C147     C      0.226300000000     0.018910000000     0.538870000000    -0.0561284  
C148     C      0.123690000000     0.989620000000     0.474430000000    -0.00437759 
C149     C      0.116510000000     0.976950000000     0.540350000000     0.000972332
C150     C      0.271670000000     0.977230000000     0.498550000000    -0.0524011  
C151     C      0.843640000000     0.013610000000     0.453910000000    -0.028556   
C152     C      0.656360000000     0.974340000000     0.483910000000    -0.0312968  
C153     C      0.619520000000     0.041390000000     0.478470000000    -0.00181171 
C154     C      0.619460000000     0.977540000000     0.499450000000    -0.00142401 
C155     C      0.734250000000     0.026880000000     0.500730000000    -0.0520881  
C156     C      0.763390000000     0.979590000000     0.452600000000    -0.0529994  
C157     C      0.711900000000     0.006610000000     0.479540000000     0.0628745  
C158     C      0.656450000000     0.034500000000     0.463560000000    -0.0311098  
C159     C      0.785590000000     0.998000000000     0.475590000000     0.06303    
C160     C      0.837770000000     0.986200000000     0.511360000000    -0.0229379  
C161     C      0.770820000000     0.023230000000     0.498370000000    -0.0548178  
C162     C      0.874780000000     0.970220000000     0.509500000000    -0.0139012  
C163     C      0.880570000000     0.998200000000     0.448560000000    -0.00082819 
C164     C      0.726870000000     0.984300000000     0.453960000000    -0.054491   
C165     C      0.000610000000     0.833870000000     0.448790000000    -0.0271353  
C166     C      0.965940000000     0.650490000000     0.497370000000    -0.0327043  
C167     C      0.020490000000     0.607730000000     0.464340000000    -0.00169157 
C168     C      0.957590000000     0.612490000000     0.487090000000    -0.000601058
C169     C      0.974070000000     0.724140000000     0.454640000000    -0.0498869  
C170     C      0.021800000000     0.755150000000     0.501170000000    -0.0518873  
C171     C      0.995250000000     0.702720000000     0.475970000000     0.0616312  
C172     C      0.025680000000     0.645980000000     0.475110000000    -0.0318956  
C173     C      0.001390000000     0.776570000000     0.479130000000     0.0689689  
C174     C      0.985050000000     0.829540000000     0.510440000000    -0.0228088  
C175     C      0.976510000000     0.760710000000     0.456590000000    -0.0559771  
C176     C      0.999480000000     0.866160000000     0.518830000000    -0.00429067 
C177     C      0.014020000000     0.871580000000     0.453070000000     0.00102839 
C178     C      0.018310000000     0.718690000000     0.500270000000    -0.0516374  
C179     C      0.976220000000     0.146010000000     0.531190000000    -0.0286511  
C180     C      0.021600000000     0.331610000000     0.504140000000    -0.0319602  
C181     C      0.954360000000     0.368850000000     0.505740000000    -0.00056719 
C182     C      0.019780000000     0.368790000000     0.489390000000    -0.00139967 
C183     C      0.968450000000     0.255050000000     0.482710000000    -0.0514439  
C184     C      0.012520000000     0.224290000000     0.532950000000    -0.0511373  
C185     C      0.988320000000     0.276560000000     0.505140000000     0.0616902  
C186     C      0.959870000000     0.331720000000     0.520260000000    -0.0324317  
C187     C      0.994440000000     0.202890000000     0.508980000000     0.0664521  
C188     C      0.004600000000     0.149860000000     0.474060000000    -0.0198781  
C189     C      0.970840000000     0.218530000000     0.484990000000    -0.0564162  
C190     C      0.019620000000     0.112640000000     0.476830000000    -0.0100542  
C191     C      0.990310000000     0.108820000000     0.537420000000     0.000424451
C192     C      0.009020000000     0.260780000000     0.531620000000    -0.053784   
H1       H      0.715000000000     0.475180000000     0.059690000000     0.0425885  
H2       H      0.822870000000     0.460500000000     0.004760000000     0.0370788  
H3       H      0.831250000000     0.567120000000     0.035970000000     0.0508888  
H4       H      0.624310000000     0.524330000000     0.962890000000     0.0556501  
H5       H      0.877070000000     0.464050000000     0.037790000000     0.0513224  
H6       H      0.663600000000     0.529040000000     0.068600000000     0.0397862  
H7       H      0.679320000000     0.492930000000     0.964080000000     0.0370122  
H8       H      0.599260000000     0.510290000000     0.064650000000     0.0423194  
H9       H      0.896470000000     0.565650000000     0.020230000000     0.0596963  
H10      H      0.779230000000     0.476050000000     0.063800000000     0.0530676  
H11      H      0.887450000000     0.458610000000     0.992010000000     0.0397402  
H12      H      0.719200000000     0.554080000000     0.978220000000     0.0511568  
H13      H      0.836720000000     0.493510000000     0.973710000000     0.041702   
H14      H      0.615260000000     0.478240000000     0.959310000000     0.0403456  
H15      H      0.656030000000     0.483550000000     0.057660000000     0.0370377  
H16      H      0.664470000000     0.463270000000     0.997950000000     0.0385754  
H17      H      0.783490000000     0.552590000000     0.980120000000     0.0465114  
H18      H      0.841940000000     0.554250000000     0.991700000000     0.0420877  
H19      H      0.611250000000     0.547700000000     0.038810000000     0.0533196  
H20      H      0.866760000000     0.509450000000     0.119430000000     0.15514    
H21      H      0.287950000000     0.524680000000     0.017710000000     0.0431499  
H22      H      0.175250000000     0.549380000000     0.970660000000     0.0379474  
H23      H      0.170220000000     0.439610000000     0.988010000000     0.0495     
H24      H      0.380040000000     0.458470000000     0.933710000000     0.0377105  
H25      H      0.125050000000     0.543980000000     0.008210000000     0.0629493  
H26      H      0.324230000000     0.459510000000     0.030400000000     0.0388447  
H27      H      0.331970000000     0.499910000000     0.926440000000     0.0353919  
H28      H      0.389910000000     0.461950000000     0.036850000000     0.0403293  
H29      H      0.103560000000     0.442710000000     0.983230000000     0.051728   
H30      H      0.223950000000     0.530260000000     0.021210000000     0.0539036  
H31      H      0.108540000000     0.550800000000     0.964630000000     0.041515   
H32      H      0.276710000000     0.448520000000     0.934300000000     0.0457756  
H33      H      0.157680000000     0.520170000000     0.937810000000     0.0373596  
H34      H      0.397890000000     0.502180000000     0.931860000000     0.0381802  
H35      H      0.342700000000     0.502740000000     0.023560000000     0.0392461  
H36      H      0.346540000000     0.526330000000     0.963070000000     0.0394607  
H37      H      0.212830000000     0.456890000000     0.935290000000     0.0426425  
H38      H      0.153120000000     0.458850000000     0.948490000000     0.0353485  
H39      H      0.375000000000     0.431760000000     0.003890000000     0.0362236  
H40      H      0.131490000000     0.493190000000     0.085270000000     0.163771   
H41      H      0.509630000000     0.776500000000     0.035340000000     0.04634    
H42      H      0.461980000000     0.661380000000     0.042880000000     0.0366515  
H43      H      0.507940000000     0.663390000000     0.941050000000     0.0451634  
H44      H      0.433200000000     0.868870000000     0.964110000000     0.0382332  
H45      H      0.503100000000     0.613550000000     0.044040000000     0.0520392  
H46      H      0.532050000000     0.815880000000     0.970650000000     0.0400154  
H47      H      0.424530000000     0.818070000000     0.001360000000     0.0369588  
H48      H      0.536070000000     0.881080000000     0.978650000000     0.0464173  
H49      H      0.504790000000     0.596810000000     0.939160000000     0.0527822  
H50      H      0.515660000000     0.712680000000     0.038150000000     0.0492483  
H51      H      0.459760000000     0.595230000000     0.040470000000     0.0383083  
H52      H      0.444010000000     0.766340000000     0.943050000000     0.0462759  
H53      H      0.438640000000     0.644280000000     0.005270000000     0.0379649  
H54      H      0.427840000000     0.883640000000     0.008760000000     0.0405973  
H55      H      0.520340000000     0.831050000000     0.014200000000     0.0467096  
H56      H      0.458160000000     0.831810000000     0.032000000000     0.0445391  
H57      H      0.447220000000     0.702380000000     0.947920000000     0.0423265  
H58      H      0.465170000000     0.644430000000     0.947950000000     0.0361233  
H59      H      0.507690000000     0.867550000000     0.943460000000     0.0356218  
H60      H      0.564150000000     0.661540000000     0.002990000000     0.155256   
H61      H      0.468630000000     0.276830000000     0.959020000000     0.0434962  
H62      H      0.554030000000     0.157540000000     0.983460000000     0.0370984  
H63      H      0.445890000000     0.167100000000     0.010320000000     0.045602   
H64      H      0.557470000000     0.368320000000     0.973950000000     0.0354249  
H65      H      0.528530000000     0.107430000000     0.955640000000     0.0512316  
H66      H      0.492990000000     0.316950000000     0.051180000000     0.0356327  
H67      H      0.531650000000     0.317540000000     0.946260000000     0.036705   
H68      H      0.487250000000     0.382300000000     0.049870000000     0.0381195  
H69      H      0.442100000000     0.101240000000     0.016980000000     0.051584   
H70      H      0.463490000000     0.213090000000     0.955660000000     0.0494377  
H71      H      0.550470000000     0.092130000000     0.994300000000     0.0414499  
H72      H      0.547900000000     0.266290000000     0.039890000000     0.0449569  
H73      H      0.538430000000     0.144490000000     0.026480000000     0.0366222  
H74      H      0.524360000000     0.383180000000     0.943770000000     0.0401693  
H75      H      0.465240000000     0.332260000000     0.015800000000     0.0402434  
H76      H      0.487460000000     0.332850000000     0.955230000000     0.0387862  
H77      H      0.540370000000     0.202700000000     0.038880000000     0.0416572  
H78      H      0.476880000000     0.148890000000     0.040810000000     0.0381461  
H79      H      0.531970000000     0.367030000000     0.046610000000     0.0372339  
H80      H      0.466620000000     0.154510000000     0.923730000000     0.153357   
H81      H      0.533930000000     0.045740000000     0.789240000000     0.0446575  
H82      H      0.530320000000     0.967240000000     0.670070000000     0.0381593  
H83      H      0.491030000000     0.071590000000     0.668470000000     0.0431095  
H84      H      0.508230000000     0.948090000000     0.868680000000     0.0358042  
H85      H      0.559780000000     0.996870000000     0.621990000000     0.0530223  
H86      H      0.438920000000     0.023820000000     0.822680000000     0.0396628  
H87      H      0.540610000000     0.977420000000     0.822710000000     0.0373864  
H88      H      0.438060000000     0.022260000000     0.889040000000     0.0543198  
H89      H      0.487850000000     0.068790000000     0.601840000000     0.0514431  
H90      H      0.544920000000     0.053380000000     0.726250000000     0.0484924  
H91      H      0.530020000000     0.965020000000     0.604420000000     0.0411316  
H92      H      0.450250000000     0.972690000000     0.765740000000     0.0460152  
H93      H      0.487510000000     0.975670000000     0.650960000000     0.0371738  
H94      H      0.540450000000     0.976040000000     0.888720000000     0.0417423  
H95      H      0.475500000000     0.046750000000     0.842450000000     0.047783   
H96      H      0.534170000000     0.019810000000     0.843080000000     0.0411447  
H97      H      0.458930000000     0.983090000000     0.702740000000     0.0419807  
H98      H      0.464440000000     0.036650000000     0.651110000000     0.0375929  
H99      H      0.437890000000     0.979730000000     0.868560000000     0.0401496  
H100     H      0.572060000000     0.075930000000     0.670220000000     0.152689   
H101     H      0.518790000000     0.947560000000     0.285310000000     0.0431337  
H102     H      0.429660000000     0.969000000000     0.167390000000     0.0384292  
H103     H      0.539260000000     0.991270000000     0.171570000000     0.0436991  
H104     H      0.438470000000     0.969050000000     0.381800000000     0.036602   
H105     H      0.454170000000     0.939230000000     0.117110000000     0.0526884  
H106     H      0.495080000000     0.045210000000     0.319320000000     0.0352622  
H107     H      0.463590000000     0.939080000000     0.332010000000     0.0370081  
H108     H      0.503390000000     0.050950000000     0.384170000000     0.0390686  
H109     H      0.539800000000     0.998530000000     0.105370000000     0.0511831  
H110     H      0.521010000000     0.940690000000     0.221480000000     0.0480561  
H111     H      0.430190000000     0.976570000000     0.101780000000     0.0421923  
H112     H      0.442090000000     0.030430000000     0.273610000000     0.0453419  
H113     H      0.446010000000     0.011020000000     0.152430000000     0.0372648  
H114     H      0.474990000000     0.943710000000     0.397530000000     0.0400866  
H115     H      0.525560000000     0.013330000000     0.336720000000     0.0399634  
H116     H      0.507780000000     0.952370000000     0.343800000000     0.038245   
H117     H      0.446860000000     0.025860000000     0.209780000000     0.0420476  
H118     H      0.508950000000     0.023430000000     0.155120000000     0.0379249  
H119     H      0.458410000000     0.043350000000     0.371440000000     0.0379062  
H120     H      0.526450000000     0.906560000000     0.165090000000     0.153429   
H121     H      0.952600000000     0.543780000000     0.708690000000     0.0436339  
H122     H      0.966760000000     0.455000000000     0.825010000000     0.0380469  
H123     H      0.000730000000     0.561180000000     0.823290000000     0.0465276  
H124     H      0.963990000000     0.452530000000     0.619780000000     0.0353871  
H125     H      0.938890000000     0.482140000000     0.875160000000     0.0510425  
H126     H      0.044070000000     0.516970000000     0.668040000000     0.0357903  
H127     H      0.938110000000     0.481440000000     0.669610000000     0.036685   
H128     H      0.041650000000     0.520930000000     0.601690000000     0.0376127  
H129     H      0.007120000000     0.559820000000     0.889400000000     0.0520248  
H130     H      0.946840000000     0.547300000000     0.772700000000     0.0590071  
H131     H      0.972790000000     0.453490000000     0.890740000000     0.0407877  
H132     H      0.031520000000     0.463000000000     0.720250000000     0.0447236  
H133     H      0.010260000000     0.466220000000     0.840940000000     0.0368178  
H134     H      0.935380000000     0.486260000000     0.603640000000     0.0400442  
H135     H      0.009170000000     0.544800000000     0.651960000000     0.0402549  
H136     H      0.948500000000     0.524410000000     0.652320000000     0.0386681  
H137     H      0.028320000000     0.469070000000     0.784230000000     0.0420645  
H138     H      0.029560000000     0.527520000000     0.839550000000     0.0372387  
H139     H      0.039300000000     0.477120000000     0.618940000000     0.0376074  
H140     H      0.896640000000     0.560980000000     0.848080000000     0.156954   
H141     H      0.037170000000     0.522050000000     0.287580000000     0.0438571  
H142     H      0.017340000000     0.440690000000     0.165250000000     0.040768   
H143     H      0.001450000000     0.550800000000     0.172530000000     0.0501163  
H144     H      0.007590000000     0.431550000000     0.372650000000     0.035492   
H145     H      0.052520000000     0.466210000000     0.119000000000     0.0635212  
H146     H      0.939530000000     0.503110000000     0.320700000000     0.036684   
H147     H      0.041570000000     0.457450000000     0.325470000000     0.0374873  
H148     H      0.937300000000     0.505800000000     0.386750000000     0.0380222  
H149     H      0.998570000000     0.554340000000     0.106340000000     0.0651172  
H150     H      0.047450000000     0.527470000000     0.224370000000     0.0597802  
H151     H      0.015810000000     0.444010000000     0.099510000000     0.0522892  
H152     H      0.950290000000     0.451680000000     0.267440000000     0.0456432  
H153     H      0.977410000000     0.460050000000     0.147830000000     0.041869   
H154     H      0.040290000000     0.459940000000     0.391300000000     0.0399421  
H155     H      0.975550000000     0.527800000000     0.339370000000     0.0408741  
H156     H      0.034810000000     0.501130000000     0.342910000000     0.0394655  
H157     H      0.958200000000     0.460090000000     0.204210000000     0.0443203  
H158     H      0.968400000000     0.523460000000     0.152800000000     0.0509979  
H159     H      0.938960000000     0.461850000000     0.369420000000     0.0373752  
H160     H      0.106680000000     0.532400000000     0.148360000000     0.156923   
H161     H      0.288450000000     0.961490000000     0.481820000000     0.0439724  
H162     H      0.166180000000     0.978300000000     0.568290000000     0.0409243  
H163     H      0.177170000000     0.003760000000     0.459970000000     0.0491165  
H164     H      0.381940000000     0.990620000000     0.566210000000     0.0354134  
H165     H      0.117900000000     0.947840000000     0.541540000000     0.0628568  
H166     H      0.321550000000     0.055740000000     0.498200000000     0.0372689  
H167     H      0.331970000000     0.956140000000     0.547180000000     0.0372348  
H168     H      0.386840000000     0.057810000000     0.487750000000     0.0391899  
H169     H      0.111510000000     0.006840000000     0.454120000000     0.0615864  
H170     H      0.224880000000     0.952210000000     0.479150000000     0.0605897  
H171     H      0.099840000000     0.985610000000     0.562830000000     0.0495537  
H172     H      0.273260000000     0.043080000000     0.559200000000     0.0463563  
H173     H      0.151430000000     0.020280000000     0.551810000000     0.0415894  
H174     H      0.397160000000     0.957220000000     0.536670000000     0.0400326  
H175     H      0.337470000000     0.018950000000     0.472870000000     0.0407943  
H176     H      0.344200000000     0.961030000000     0.501420000000     0.0392724  
H177     H      0.209400000000     0.036090000000     0.553980000000     0.0446494  
H178     H      0.156620000000     0.033810000000     0.489940000000     0.0491517  
H179     H      0.374740000000     0.058090000000     0.533590000000     0.0383791  
H180     H      0.147920000000     0.896260000000     0.471840000000     0.158957   
H181     H      0.710520000000     0.969350000000     0.436100000000     0.042814   
H182     H      0.831140000000     0.016900000000     0.427570000000     0.0371931  
H183     H      0.820570000000     0.969470000000     0.528190000000     0.0441887  
H184     H      0.622110000000     0.056420000000     0.503470000000     0.0492637  
H185     H      0.878570000000     0.974660000000     0.431370000000     0.0544062  
H186     H      0.671190000000     0.954300000000     0.499280000000     0.0382131  
H187     H      0.671290000000     0.059710000000     0.463590000000     0.0369326  
H188     H      0.605010000000     0.952720000000     0.494050000000     0.0407264  
H189     H      0.886670000000     0.972870000000     0.536150000000     0.0549308  
H190     H      0.774430000000     0.960870000000     0.434180000000     0.0495355  
H191     H      0.897040000000     0.017900000000     0.434520000000     0.0393381  
H192     H      0.723190000000     0.044950000000     0.519790000000     0.0488359  
H193     H      0.845590000000     0.039960000000     0.466490000000     0.0379293  
H194     H      0.604660000000     0.058110000000     0.459570000000     0.0399337  
H195     H      0.654030000000     0.965030000000     0.456200000000     0.0379973  
H196     H      0.654520000000     0.025160000000     0.435810000000     0.0388435  
H197     H      0.787260000000     0.039040000000     0.515380000000     0.0429664  
H198     H      0.839970000000     0.012310000000     0.524330000000     0.0371402  
H199     H      0.621740000000     0.980060000000     0.528560000000     0.0410571  
H200     H      0.824440000000     0.914300000000     0.471340000000     0.153701   
H201     H      0.034070000000     0.703230000000     0.518220000000     0.0440301  
H202     H      0.015410000000     0.821200000000     0.426900000000     0.0420024  
H203     H      0.986420000000     0.812970000000     0.534570000000     0.0496533  
H204     H      0.015530000000     0.606750000000     0.435470000000     0.0363862  
H205     H      0.043320000000     0.871270000000     0.452610000000     0.0636281  
H206     H      0.940990000000     0.665850000000     0.496250000000     0.0374241  
H207     H      0.045530000000     0.658070000000     0.457230000000     0.0378354  
H208     H      0.940120000000     0.600910000000     0.507570000000     0.0386211  
H209     H      0.981120000000     0.878410000000     0.538100000000     0.061214   
H210     H      0.040320000000     0.766910000000     0.519410000000     0.0609232  
H211     H      0.005270000000     0.887110000000     0.429860000000     0.0504181  
H212     H      0.955480000000     0.712340000000     0.436500000000     0.0470535  
H213     H      0.972200000000     0.834820000000     0.441480000000     0.0437034  
H214     H      0.045430000000     0.593260000000     0.469400000000     0.0404378  
H215     H      0.976010000000     0.651450000000     0.524930000000     0.040897   
H216     H      0.036270000000     0.646440000000     0.502460000000     0.0389892  
H217     H      0.959330000000     0.776270000000     0.440090000000     0.0463699  
H218     H      0.956720000000     0.831440000000     0.502890000000     0.0506754  
H219     H      0.942860000000     0.612540000000     0.461760000000     0.0380496  
H220     H      0.094020000000     0.845910000000     0.525000000000     0.159155   
H221     H      0.023560000000     0.276440000000     0.550400000000     0.0425156  
H222     H      0.972970000000     0.159000000000     0.557260000000     0.0370962  
H223     H      0.022010000000     0.166180000000     0.457030000000     0.0481806  
H224     H      0.941270000000     0.366970000000     0.479580000000     0.0380252  
H225     H      0.013580000000     0.110260000000     0.555170000000     0.0531473  
H226     H      0.042590000000     0.317020000000     0.489790000000     0.0377869  
H227     H      0.934460000000     0.317250000000     0.518140000000     0.0350933  
H228     H      0.044450000000     0.382760000000     0.496750000000     0.0398568  
H229     H      0.017020000000     0.100340000000     0.450400000000     0.0538886  
H230     H      0.029970000000     0.212620000000     0.552260000000     0.0537925  
H231     H      0.969650000000     0.093300000000     0.551200000000     0.0385173  
H232     H      0.951560000000     0.266730000000     0.462900000000     0.045296   
H233     H      0.949870000000     0.144780000000     0.518270000000     0.0375387  
H234     H      0.936220000000     0.383300000000     0.523640000000     0.0366964  
H235     H      0.029070000000     0.333150000000     0.532470000000     0.0379817  
H236     H      0.967300000000     0.332940000000     0.548640000000     0.0386991  
H237     H      0.955280000000     0.202800000000     0.467100000000     0.0424686  
H238     H      0.978400000000     0.148150000000     0.460940000000     0.0356606  
H239     H      0.019090000000     0.367280000000     0.460140000000     0.035838   
H240     H      0.098960000000     0.137030000000     0.526770000000     0.155475   
N1       N      0.897910000000     0.509710000000     0.013750000000    -0.172657   
N2       N      0.824450000000     0.512580000000     0.025190000000    -0.104727   
N3       N      0.674020000000     0.515830000000     0.015060000000    -0.109817   
N4       N      0.601300000000     0.502210000000     0.008600000000    -0.175286   
N5       N      0.101530000000     0.498920000000     0.985480000000    -0.171957   
N6       N      0.175550000000     0.495320000000     0.984940000000    -0.105738   
N7       N      0.324570000000     0.476630000000     0.976900000000    -0.112181   
N8       N      0.398660000000     0.477280000000     0.982720000000    -0.181059   
N9       N      0.491910000000     0.591630000000     0.993990000000    -0.173919   
N10      N      0.489590000000     0.665300000000     0.994180000000    -0.110842   
N11      N      0.477080000000     0.813850000000     0.982180000000    -0.111969   
N12      N      0.480200000000     0.887510000000     0.987520000000    -0.178741   
N13      N      0.493650000000     0.091500000000     0.996180000000    -0.173456   
N14      N      0.499020000000     0.165120000000     0.991830000000    -0.110954   
N15      N      0.516080000000     0.313960000000     0.000090000000    -0.112222   
N16      N      0.511780000000     0.387810000000     0.999030000000    -0.181072   
N17      N      0.514570000000     0.019380000000     0.598460000000    -0.173614   
N18      N      0.513620000000     0.020580000000     0.672870000000    -0.108555   
N19      N      0.488270000000     0.997450000000     0.818990000000    -0.112316   
N20      N      0.486210000000     0.992850000000     0.893040000000    -0.178397   
N21      N      0.486940000000     0.980110000000     0.098320000000    -0.173352   
N22      N      0.485170000000     0.975890000000     0.172730000000    -0.108256   
N23      N      0.475080000000     0.992980000000     0.322410000000    -0.112085   
N24      N      0.482550000000     0.999750000000     0.396120000000    -0.180375   
N25      N      0.983350000000     0.509080000000     0.895150000000    -0.174505   
N26      N      0.979840000000     0.509250000000     0.821020000000    -0.10513    
N27      N      0.992530000000     0.495140000000     0.672010000000    -0.112245   
N28      N      0.991180000000     0.495760000000     0.597930000000    -0.180988   
N29      N      0.014070000000     0.500750000000     0.098290000000    -0.169131   
N30      N      0.013230000000     0.496040000000     0.172320000000    -0.104705   
N31      N      0.989320000000     0.477220000000     0.319470000000    -0.112231   
N32      N      0.986420000000     0.478420000000     0.393470000000    -0.181656   
N33      N      0.100960000000     0.987230000000     0.506090000000    -0.169048   
N34      N      0.174780000000     0.986310000000     0.513420000000    -0.104633   
N35      N      0.323440000000     0.007280000000     0.526110000000    -0.112207   
N36      N      0.397080000000     0.010220000000     0.516390000000    -0.181083   
N37      N      0.896660000000     0.987860000000     0.482470000000    -0.174253   
N38      N      0.822740000000     0.989620000000     0.475760000000    -0.110367   
N39      N      0.674320000000     0.008490000000     0.485720000000    -0.111144   
N40      N      0.600240000000     0.008480000000     0.485830000000    -0.178751   
N41      N      0.002300000000     0.887850000000     0.486530000000    -0.168672   
N42      N      0.005830000000     0.814200000000     0.481740000000    -0.104332   
N43      N      0.991970000000     0.665010000000     0.472710000000    -0.111876   
N44      N      0.990110000000     0.591660000000     0.482630000000    -0.18084    
N45      N      0.000990000000     0.091850000000     0.504060000000    -0.174524   
N46      N      0.001350000000     0.165570000000     0.509340000000    -0.105179   
N47      N      0.987330000000     0.314110000000     0.499600000000    -0.112103   
N48      N      0.988050000000     0.387880000000     0.501480000000    -0.180842   
O1       O      0.002980000000     0.042070000000     0.470200000000    -0.554582   
O2       O      0.002360000000     0.942810000000     0.461300000000    -0.544681   
O3       O      0.952490000000     0.993560000000     0.459830000000    -0.555928   
O4       O      0.051740000000     0.991890000000     0.471440000000    -0.544285   
O5       O      0.045020000000     0.987330000000     0.529640000000    -0.545214   
O6       O      0.945640000000     0.986430000000     0.517790000000    -0.555342   
O7       O      0.996020000000     0.937830000000     0.519510000000    -0.543409   
O8       O      0.994110000000     0.036970000000     0.528100000000    -0.55564    
O9       O      0.958900000000     0.440700000000     0.499480000000    -0.554007   
O10      O      0.960190000000     0.540310000000     0.493110000000    -0.554108   
O11      O      0.958310000000     0.487610000000     0.446190000000    -0.555699   
O12      O      0.960700000000     0.493130000000     0.545930000000    -0.558799   
O13      O      0.019470000000     0.495680000000     0.544390000000    -0.555697   
O14      O      0.016990000000     0.483230000000     0.445210000000    -0.559742   
O15      O      0.018800000000     0.538980000000     0.488160000000    -0.558531   
O16      O      0.017750000000     0.440250000000     0.500120000000    -0.559079   
O17      O      0.448070000000     0.038630000000     0.500610000000    -0.553999   
O18      O      0.547600000000     0.038270000000     0.488080000000    -0.547172   
O19      O      0.491880000000     0.033670000000     0.445110000000    -0.557173   
O20      O      0.503780000000     0.043390000000     0.543980000000    -0.543258   
O21      O      0.507710000000     0.985210000000     0.549220000000    -0.557957   
O22      O      0.489200000000     0.975510000000     0.451300000000    -0.554667   
O23      O      0.547530000000     0.979830000000     0.491990000000    -0.55964    
O24      O      0.449350000000     0.980820000000     0.509900000000    -0.560087   
O25      O      0.516320000000     0.985900000000     0.045590000000    -0.543415   
O26      O      0.515650000000     0.988480000000     0.945550000000    -0.557717   
O27      O      0.519370000000     0.036980000000     0.996430000000    -0.558626   
O28      O      0.512740000000     0.937810000000     0.993460000000    -0.55085    
O29      O      0.454020000000     0.941610000000     0.992570000000    -0.553573   
O30      O      0.460820000000     0.040900000000     0.999910000000    -0.542342   
O31      O      0.457210000000     0.995320000000     0.946150000000    -0.543876   
O32      O      0.457530000000     0.987000000000     0.045920000000    -0.555767   
O33      O      0.004900000000     0.473590000000     0.045060000000    -0.546957   
O34      O      0.990090000000     0.477630000000     0.946300000000    -0.55973    
O35      O      0.047050000000     0.472870000000     0.988800000000    -0.549301   
O36      O      0.948180000000     0.478160000000     0.002740000000    -0.556674   
O37      O      0.951540000000     0.536570000000     0.005090000000    -0.54163    
O38      O      0.050630000000     0.531300000000     0.990450000000    -0.547954   
O39      O      0.994310000000     0.536000000000     0.948100000000    -0.548393   
O40      O      0.007830000000     0.532020000000     0.047030000000    -0.541343   
O41      O      0.502310000000     0.440510000000     0.026600000000    -0.557331   
O42      O      0.489260000000     0.539200000000     0.023620000000    -0.55395    
O43      O      0.446920000000     0.482770000000     0.018650000000    -0.557023   
O44      O      0.545310000000     0.496910000000     0.031430000000    -0.550921   
O45      O      0.553230000000     0.492990000000     0.973300000000    -0.550937   
O46      O      0.454310000000     0.485420000000     0.960380000000    -0.556371   
O47      O      0.500300000000     0.538880000000     0.965870000000    -0.548315   
O48      O      0.508180000000     0.439520000000     0.968110000000    -0.556537   
O49      O      0.861580000000     0.509050000000     0.093860000000    -0.275274   
O50      O      0.876530000000     0.578930000000     0.093410000000    -0.181637   
O51      O      0.929180000000     0.531750000000     0.086510000000    -0.184231   
O52      O      0.136300000000     0.496400000000     0.059820000000    -0.267418   
O53      O      0.148320000000     0.426600000000     0.050660000000    -0.18298    
O54      O      0.081640000000     0.450250000000     0.055850000000    -0.180103   
O55      O      0.563060000000     0.636420000000     0.009610000000    -0.272331   
O56      O      0.573380000000     0.636450000000     0.938510000000    -0.187056   
O57      O      0.572770000000     0.575440000000     0.973970000000    -0.174179   
O58      O      0.469240000000     0.128700000000     0.925060000000    -0.273812   
O59      O      0.407020000000     0.143850000000     0.957600000000    -0.189362   
O60      O      0.424620000000     0.076750000000     0.944990000000    -0.171795   
O61      O      0.575320000000     0.061590000000     0.648710000000    -0.271715   
O62      O      0.537020000000     0.119340000000     0.630350000000    -0.188082   
O63      O      0.566540000000     0.079240000000     0.579960000000    -0.168286   
O64      O      0.514130000000     0.909910000000     0.142340000000    -0.272562   
O65      O      0.579240000000     0.940020000000     0.137730000000    -0.189164   
O66      O      0.544120000000     0.922600000000     0.078680000000    -0.167983   
O67      O      0.917780000000     0.545740000000     0.847990000000    -0.276765   
O68      O      0.953650000000     0.606340000000     0.860480000000    -0.184065   
O69      O      0.929710000000     0.567720000000     0.915140000000    -0.174332   
O70      O      0.082430000000     0.522820000000     0.149470000000    -0.275533   
O71      O      0.057370000000     0.589260000000     0.141450000000    -0.18088    
O72      O      0.076800000000     0.551890000000     0.084190000000    -0.168335   
O73      O      0.148800000000     0.919540000000     0.483410000000    -0.273439   
O74      O      0.152900000000     0.950170000000     0.418760000000    -0.184077   
O75      O      0.089550000000     0.930810000000     0.444650000000    -0.174461   
O76      O      0.849210000000     0.916500000000     0.463400000000    -0.27126    
O77      O      0.853680000000     0.903550000000     0.533900000000    -0.186246   
O78      O      0.912870000000     0.908220000000     0.495110000000    -0.172957   
O79      O      0.071080000000     0.843790000000     0.512730000000    -0.272907   
O80      O      0.038210000000     0.839390000000     0.576310000000    -0.184028   
O81      O      0.056170000000     0.902770000000     0.550220000000    -0.17487    
O82      O      0.073090000000     0.137770000000     0.523300000000    -0.275301   
O83      O      0.087190000000     0.132140000000     0.453200000000    -0.185099   
O84      O      0.080810000000     0.073610000000     0.492760000000    -0.183054   
S1       S      0.887570000000     0.540360000000     0.076580000000     0.285629   
S2       S      0.121480000000     0.459440000000     0.040720000000     0.28967    
S3       S      0.554950000000     0.614990000000     0.971720000000     0.286038   
S4       S      0.440340000000     0.115750000000     0.956050000000     0.287577   
S5       S      0.547140000000     0.078560000000     0.619040000000     0.286138   
S6       S      0.539680000000     0.937780000000     0.119320000000     0.286219   
S7       S      0.946550000000     0.565940000000     0.874910000000     0.286108   
S8       S      0.058400000000     0.549570000000     0.123710000000     0.28615    
S9       S      0.128780000000     0.946890000000     0.454990000000     0.288017   
S10      S      0.872540000000     0.924040000000     0.500320000000     0.285485   
S11      S      0.041860000000     0.863030000000     0.539870000000     0.288184   
S12      S      0.065910000000     0.114010000000     0.486680000000     0.285129   
V1       V      0.002520000000     0.992780000000     0.463350000000     1.4152     
V2       V      0.994910000000     0.987060000000     0.526090000000     1.41376    
V3       V      0.957150000000     0.490540000000     0.496240000000     1.38955    
V4       V      0.020610000000     0.489610000000     0.494560000000     1.40071    
V5       V      0.497810000000     0.040850000000     0.494190000000     1.39499    
V6       V      0.498400000000     0.978000000000     0.500660000000     1.39979    
V7       V      0.518360000000     0.987210000000     0.995410000000     1.41001    
V8       V      0.455030000000     0.991430000000     0.996190000000     1.39713    
V9       V      0.997440000000     0.473250000000     0.995580000000     1.40775    
V10      V      0.001210000000     0.536310000000     0.997660000000     1.41595    
V11      V      0.495660000000     0.489890000000     0.027420000000     1.39322    
V12      V      0.504200000000     0.489150000000     0.964570000000     1.40015    


