data_structure

_audit_creation_method RASPA-1.0
_audit_creation_date 2023-5-25
_audit_author_name 'Poobodin Mano'

_cell_length_a    37.7709
_cell_length_b    38.0199
_cell_length_c    37.7256
_cell_angle_alpha 90
_cell_angle_beta  90
_cell_angle_gamma 90
_cell_volume      54175.7

_symmetry_cell_setting          triclinic
_symmetry_space_group_name_Hall 'P 1'
_symmetry_space_group_name_H-M  'P 1'
_symmetry_Int_Tables_number     1

_symmetry_equiv_pos_as_xyz 'x,y,z'

loop_
_atom_site_label
_atom_site_type_symbol
_atom_site_fract_x
_atom_site_fract_y
_atom_site_fract_z
_atom_site_charge
C1       C      0.013060000000     0.075330000000     0.498000000000     0.474648   
C2       C      0.995870000000     0.943320000000     0.506680000000     0.474287   
C3       C      0.937370000000     0.019100000000     0.503930000000     0.474867   
C4       C      0.070190000000     0.999380000000     0.500910000000     0.473562   
C5       C      0.987690000000     0.513200000000     0.421620000000     0.47381    
C6       C      0.990790000000     0.506150000000     0.555640000000     0.475804   
C7       C      0.993460000000     0.442550000000     0.484240000000     0.47235    
C8       C      0.985230000000     0.575440000000     0.492170000000     0.471526   
C9       C      0.569360000000     0.002970000000     0.521590000000     0.472203   
C10      C      0.439060000000     0.999010000000     0.488960000000     0.472007   
C11      C      0.521000000000     0.008740000000     0.440630000000     0.47311    
C12      C      0.487430000000     0.993020000000     0.569840000000     0.474876   
C13      C      0.505650000000     0.994480000000     0.072310000000     0.474115   
C14      C      0.489210000000     0.982350000000     0.939430000000     0.471236   
C15      C      0.500840000000     0.054540000000     0.998130000000     0.476047   
C16      C      0.494120000000     0.922290000000     0.013710000000     0.474732   
C17      C      0.013600000000     0.478500000000     0.056220000000     0.475372   
C18      C      0.986640000000     0.478950000000     0.924760000000     0.471412   
C19      C      0.065640000000     0.475720000000     0.976540000000     0.475663   
C20      C      0.934510000000     0.481920000000     0.003360000000     0.475251   
C21      C      0.503110000000     0.421980000000     0.004520000000     0.473092   
C22      C      0.496070000000     0.554830000000     0.013190000000     0.472818   
C23      C      0.433200000000     0.486720000000     0.999510000000     0.473387   
C24      C      0.565950000000     0.489360000000     0.018090000000     0.473951   
C25      C      0.846460000000     0.512380000000     0.036370000000    -0.0340411  
C26      C      0.660900000000     0.484160000000     0.994280000000    -0.0315978  
C27      C      0.617740000000     0.491710000000     0.057930000000    -0.000691315
C28      C      0.623120000000     0.470340000000     0.994240000000    -0.00164837 
C29      C      0.729710000000     0.515400000000     0.012200000000    -0.0571414  
C30      C      0.771610000000     0.464950000000     0.046100000000    -0.0559462  
C31      C      0.713460000000     0.487830000000     0.031090000000     0.0608603  
C32      C      0.656090000000     0.504810000000     0.054980000000    -0.032431   
C33      C      0.787610000000     0.489890000000     0.023530000000     0.0600942  
C34      C      0.840470000000     0.453500000000     0.012830000000    -0.0578975  
C35      C      0.766420000000     0.515860000000     0.007880000000    -0.0536949  
C36      C      0.876120000000     0.455170000000     0.993500000000     0.0988308  
C37      C      0.882360000000     0.517640000000     0.018290000000     0.00427064 
C38      C      0.734760000000     0.463610000000     0.049170000000    -0.0551415  
C39      C      0.158420000000     0.449420000000     0.986080000000    -0.0334768  
C40      C      0.345460000000     0.489620000000     0.953670000000    -0.0318594  
C41      C      0.373720000000     0.480360000000     0.025090000000    -0.000431073
C42      C      0.382660000000     0.503150000000     0.961950000000    -0.00186804 
C43      C      0.272790000000     0.461520000000     0.954850000000    -0.0567853  
C44      C      0.225730000000     0.501040000000     0.995950000000    -0.0565611  
C45      C      0.286090000000     0.485750000000     0.979800000000     0.0605625  
C46      C      0.337490000000     0.467030000000     0.013090000000    -0.0322855  
C47      C      0.212490000000     0.478810000000     0.969170000000     0.0603261  
C48      C      0.155650000000     0.508780000000     0.962060000000    -0.0578159  
C49      C      0.236330000000     0.458690000000     0.949210000000    -0.0543305  
C50      C      0.117860000000     0.503210000000     0.948330000000     0.0984654  
C51      C      0.120930000000     0.441230000000     0.973070000000     0.00355094 
C52      C      0.262180000000     0.504920000000     0.000600000000    -0.0548821  
C53      C      0.516570000000     0.827650000000     0.005430000000    -0.033845   
C54      C      0.482610000000     0.644520000000     0.051590000000    -0.0319306  
C55      C      0.498970000000     0.612250000000     0.983330000000    -0.000585631
C56      C      0.472660000000     0.606050000000     0.045370000000    -0.00202723 
C57      C      0.507770000000     0.717940000000     0.045320000000    -0.0569523  
C58      C      0.464740000000     0.759430000000     0.001800000000    -0.0565142  
C59      C      0.484000000000     0.701650000000     0.021680000000     0.0605078  
C60      C      0.508400000000     0.650140000000     0.993140000000    -0.0323404  
C61      C      0.486990000000     0.775680000000     0.026910000000     0.0602641  
C62      C      0.456410000000     0.832750000000     0.027030000000    -0.0577843  
C63      C      0.508650000000     0.754560000000     0.048280000000    -0.0541066  
C64      C      0.461710000000     0.871300000000     0.038120000000     0.0982807  
C65      C      0.525240000000     0.865500000000     0.015870000000     0.00415162 
C66      C      0.462880000000     0.722770000000     0.999780000000    -0.054883   
C67      C      0.539440000000     0.144000000000     0.987160000000    -0.0331409  
C68      C      0.491610000000     0.326790000000     0.024860000000    -0.0323615  
C69      C      0.524770000000     0.370880000000     0.970980000000    -0.00171609 
C70      C      0.502200000000     0.364460000000     0.034380000000    -0.000578942
C71      C      0.488700000000     0.259480000000     0.971270000000    -0.0568763  
C72      C      0.532250000000     0.216950000000     0.013220000000    -0.056643   
C73      C      0.513290000000     0.275200000000     0.994470000000     0.06048    
C74      C      0.513830000000     0.332670000000     0.964960000000    -0.0320207  
C75      C      0.509300000000     0.201290000000     0.988350000000     0.0604663  
C76      C      0.479010000000     0.148830000000     0.008200000000    -0.0588152  
C77      C      0.487350000000     0.222930000000     0.967830000000    -0.0542723  
C78      C      0.469740000000     0.111530000000     0.995810000000     0.100828   
C79      C      0.533880000000     0.105850000000     0.975440000000     0.00270346 
C80      C      0.534620000000     0.253550000000     0.015640000000    -0.0548156  
C81      C      0.469250000000     0.019020000000     0.661970000000    -0.0330529  
C82      C      0.506770000000     0.963630000000     0.843370000000    -0.0323104  
C83      C      0.451770000000     0.994830000000     0.887770000000    -0.00174656 
C84      C      0.516510000000     0.975200000000     0.880900000000    -0.000378413
C85      C      0.452130000000     0.962960000000     0.774120000000    -0.0565124  
C86      C      0.497750000000     0.004520000000     0.733410000000    -0.0566928  
C87      C      0.476590000000     0.985300000000     0.791180000000     0.0601138  
C88      C      0.446440000000     0.983580000000     0.849160000000    -0.0320398  
C89      C      0.471530000000     0.984240000000     0.716440000000     0.0602575  
C90      C      0.491220000000     0.958890000000     0.660870000000    -0.0584155  
C91      C      0.449300000000     0.963030000000     0.737140000000    -0.0544105  
C92      C      0.480100000000     0.954040000000     0.621900000000     0.100113   
C93      C      0.458080000000     0.017070000000     0.623110000000     0.00301228 
C94      C      0.499630000000     0.005530000000     0.770370000000    -0.0543971  
C95      C      0.489060000000     0.017940000000     0.166900000000    -0.0340172  
C96      C      0.538370000000     0.980390000000     0.349900000000    -0.0317976  
C97      C      0.525470000000     0.046330000000     0.387200000000    -0.00123367 
C98      C      0.551570000000     0.985240000000     0.387800000000    -0.00170952 
C99      C      0.502980000000     0.989810000000     0.280590000000    -0.0570048  
C100     C      0.546630000000     0.026550000000     0.233520000000    -0.056047   
C101     C      0.530190000000     0.011390000000     0.294000000000     0.0604665  
C102     C      0.512840000000     0.039320000000     0.349160000000    -0.0324562  
C103     C      0.521370000000     0.002660000000     0.220160000000     0.0598917  
C104     C      0.549350000000     0.997400000000     0.161280000000    -0.057538   
C105     C      0.499220000000     0.985000000000     0.244090000000    -0.0537426  
C106     C      0.542560000000     0.981200000000     0.124550000000     0.0981058  
C107     C      0.478570000000     0.002520000000     0.130970000000     0.00418958 
C108     C      0.551330000000     0.030280000000     0.270120000000    -0.0551459  
C109     C      0.018130000000     0.485310000000     0.647860000000    -0.0338734  
C110     C      0.975770000000     0.515940000000     0.835490000000    -0.0314419  
C111     C      0.983350000000     0.446790000000     0.867990000000    -0.00138998 
C112     C      0.961460000000     0.509570000000     0.872800000000    -0.0026671  
C113     C      0.006610000000     0.511350000000     0.764150000000    -0.0567101  
C114     C      0.966340000000     0.471080000000     0.717030000000    -0.0563904  
C115     C      0.981480000000     0.487340000000     0.777490000000     0.0604602  
C116     C      0.997460000000     0.455820000000     0.831030000000    -0.0321929  
C117     C      0.988880000000     0.497540000000     0.703770000000     0.0603632  
C118     C      0.956920000000     0.504630000000     0.647700000000    -0.0579547  
C119     C      0.009620000000     0.516830000000     0.727640000000    -0.0541938  
C120     C      0.960530000000     0.521830000000     0.611190000000     0.0987565  
C121     C      0.024870000000     0.501490000000     0.611230000000     0.00393516 
C122     C      0.962220000000     0.466650000000     0.753550000000    -0.0548237  
C123     C      0.997430000000     0.457790000000     0.149170000000    -0.0333626  
C124     C      0.023560000000     0.518600000000     0.331410000000    -0.0317     
C125     C      0.955060000000     0.507090000000     0.365150000000    -0.00102335 
C126     C      0.015550000000     0.535700000000     0.367060000000    -0.00178384 
C127     C      0.020720000000     0.477680000000     0.264960000000    -0.0571067  
C128     C      0.983900000000     0.514340000000     0.212340000000    -0.056287   
C129     C      0.996410000000     0.504100000000     0.274670000000     0.0607265  
C130     C      0.965530000000     0.490760000000     0.329460000000    -0.0323753  
C131     C      0.010630000000     0.490320000000     0.202620000000     0.0600011  
C132     C      0.023230000000     0.516350000000     0.144640000000    -0.0576983  
C133     C      0.028170000000     0.471440000000     0.229240000000    -0.0540692  
C134     C      0.039910000000     0.507980000000     0.108530000000     0.0983649  
C135     C      0.013400000000     0.446930000000     0.113500000000     0.00344007 
C136     C      0.977440000000     0.521570000000     0.248070000000    -0.0551596  
C137     C      0.165610000000     0.006900000000     0.522340000000    -0.033727   
C138     C      0.349560000000     0.961160000000     0.477770000000    -0.0320785  
C139     C      0.382100000000     0.030410000000     0.483570000000    -0.0011515  
C140     C      0.387500000000     0.966750000000     0.464440000000    -0.00249386 
C141     C      0.277130000000     0.967900000000     0.506700000000    -0.0564814  
C142     C      0.232030000000     0.010830000000     0.466870000000    -0.056377   
C143     C      0.291580000000     0.990720000000     0.481010000000     0.0601078  
C144     C      0.344990000000     0.021880000000     0.497260000000    -0.0322687  
C145     C      0.217450000000     0.986280000000     0.490750000000     0.0599622  
C146     C      0.158980000000     0.983890000000     0.462690000000    -0.057737   
C147     C      0.240420000000     0.965320000000     0.510920000000    -0.0540191  
C148     C      0.120690000000     0.972360000000     0.469620000000     0.0982112  
C149     C      0.127610000000     0.996430000000     0.532120000000     0.00356681 
C150     C      0.268620000000     0.012400000000     0.461630000000    -0.0547167  
C151     C      0.848440000000     0.029430000000     0.543040000000    -0.0330043  
C152     C      0.663550000000     0.982260000000     0.511490000000    -0.0323365  
C153     C      0.620440000000     0.035170000000     0.547090000000    -0.0022931  
C154     C      0.626960000000     0.972390000000     0.525840000000    -0.00126915 
C155     C      0.729050000000     0.038640000000     0.500950000000    -0.0566132  
C156     C      0.777230000000     0.997810000000     0.539370000000    -0.0566446  
C157     C      0.716400000000     0.014850000000     0.526700000000     0.0600021  
C158     C      0.657670000000     0.042350000000     0.532750000000    -0.0320122  
C159     C      0.789940000000     0.023520000000     0.515640000000     0.0600176  
C160     C      0.842800000000     0.006910000000     0.483030000000    -0.0582725  
C161     C      0.765450000000     0.043300000000     0.496090000000    -0.0541739  
C162     C      0.879750000000     0.020660000000     0.472640000000     0.0999484  
C163     C      0.885680000000     0.043300000000     0.535720000000     0.00283809 
C164     C      0.740880000000     0.994140000000     0.545270000000    -0.0547435  
C165     C      0.990320000000     0.850450000000     0.476330000000    -0.032975   
C166     C      0.953680000000     0.665230000000     0.515900000000    -0.0325725  
C167     C      0.013480000000     0.632320000000     0.479740000000    -0.00190371 
C168     C      0.948850000000     0.628900000000     0.498890000000    -0.00105171 
C169     C      0.002550000000     0.737360000000     0.529370000000    -0.0565348  
C170     C      0.959240000000     0.781160000000     0.488570000000    -0.0565221  
C171     C      0.979820000000     0.722440000000     0.503800000000     0.0601956  
C172     C      0.014960000000     0.668510000000     0.497130000000    -0.0318131  
C173     C      0.985070000000     0.796140000000     0.510930000000     0.0602855  
C174     C      0.972870000000     0.853220000000     0.538080000000    -0.058304   
C175     C      0.005580000000     0.773880000000     0.532260000000    -0.0541218  
C176     C      0.990430000000     0.889480000000     0.543220000000     0.100221   
C177     C      0.007550000000     0.886670000000     0.477820000000     0.00314142 
C178     C      0.957280000000     0.744660000000     0.484570000000    -0.0546344  
C179     C      0.002850000000     0.169440000000     0.519900000000    -0.0338575  
C180     C      0.034180000000     0.353850000000     0.476400000000    -0.0319126  
C181     C      0.964070000000     0.384640000000     0.485810000000    -0.0009745  
C182     C      0.027180000000     0.391190000000     0.463200000000    -0.00215569 
C183     C      0.031190000000     0.281770000000     0.504240000000    -0.0566981  
C184     C      0.989270000000     0.235890000000     0.464280000000    -0.0560476  
C185     C      0.006360000000     0.295620000000     0.480080000000     0.0601564  
C186     C      0.974260000000     0.347750000000     0.498620000000    -0.0323515  
C187     C      0.015950000000     0.222110000000     0.486430000000     0.0598243  
C188     C      0.017180000000     0.163990000000     0.457490000000    -0.0578137  
C189     C      0.036350000000     0.245450000000     0.506700000000    -0.0539347  
C190     C      0.032010000000     0.126650000000     0.462400000000     0.0982668  
C191     C      0.017510000000     0.132790000000     0.528000000000     0.00384212 
C192     C      0.985130000000     0.272270000000     0.460700000000    -0.0547569  
H1       H      0.722670000000     0.442820000000     0.064620000000     0.0426112  
H2       H      0.833560000000     0.538570000000     0.039090000000     0.0325762  
H3       H      0.822530000000     0.435060000000     0.998560000000     0.0410277  
H4       H      0.617620000000     0.466120000000     0.072210000000     0.0352614  
H5       H      0.878520000000     0.534040000000     0.994170000000     0.037398   
H6       H      0.676880000000     0.467870000000     0.975680000000     0.0335733  
H7       H      0.668360000000     0.503800000000     0.081780000000     0.032622   
H8       H      0.611610000000     0.474740000000     0.967480000000     0.0374144  
H9       H      0.889250000000     0.429150000000     0.996930000000     0.0147646  
H10      H      0.787180000000     0.445370000000     0.059850000000     0.038731   
H11      H      0.899980000000     0.532490000000     0.036590000000     0.0334066  
H12      H      0.714080000000     0.535410000000     0.999160000000     0.0393838  
H13      H      0.850210000000     0.501300000000     0.063440000000     0.0361392  
H14      H      0.602200000000     0.510810000000     0.073980000000     0.0344453  
H15      H      0.660610000000     0.511730000000     0.984340000000     0.0361806  
H16      H      0.656390000000     0.532650000000     0.045770000000     0.0365205  
H17      H      0.778350000000     0.535860000000     0.991300000000     0.0428305  
H18      H      0.844930000000     0.442760000000     0.039940000000     0.0397162  
H19      H      0.623830000000     0.441440000000     0.998730000000     0.0327979  
H20      H      0.894510000000     0.463130000000     0.942500000000     0.0860718  
H21      H      0.856240000000     0.439800000000     0.944690000000     0.0775037  
H22      H      0.271930000000     0.522830000000     0.020680000000     0.0422458  
H23      H      0.173820000000     0.424450000000     0.986270000000     0.0331439  
H24      H      0.169490000000     0.528290000000     0.944960000000     0.0409802  
H25      H      0.370080000000     0.505150000000     0.040320000000     0.0351187  
H26      H      0.122710000000     0.427020000000     0.947370000000     0.0372187  
H27      H      0.333700000000     0.506480000000     0.932620000000     0.0330873  
H28      H      0.319690000000     0.466500000000     0.036620000000     0.0323689  
H29      H      0.399900000000     0.497970000000     0.938630000000     0.0371771  
H30      H      0.103260000000     0.528410000000     0.951860000000     0.014884   
H31      H      0.208160000000     0.515800000000     0.012980000000     0.0386741  
H32      H      0.107970000000     0.423470000000     0.992580000000     0.0347622  
H33      H      0.290310000000     0.445180000000     0.939290000000     0.0391922  
H34      H      0.157370000000     0.459710000000     0.013710000000     0.0362483  
H35      H      0.385510000000     0.460580000000     0.043350000000     0.0352869  
H36      H      0.347720000000     0.462300000000     0.943290000000     0.0351799  
H37      H      0.339770000000     0.439670000000     0.002740000000     0.0366992  
H38      H      0.226540000000     0.440670000000     0.929260000000     0.0433776  
H39      H      0.153810000000     0.519980000000     0.989250000000     0.0401362  
H40      H      0.381390000000     0.532160000000     0.965480000000     0.033623   
H41      H      0.092940000000     0.489720000000     0.901650000000     0.083975   
H42      H      0.128880000000     0.516100000000     0.896160000000     0.0770706  
H43      H      0.445220000000     0.710680000000     0.980720000000     0.0424666  
H44      H      0.541480000000     0.812030000000     0.006770000000     0.0328836  
H45      H      0.435870000000     0.820400000000     0.044150000000     0.0410346  
H46      H      0.474820000000     0.612460000000     0.966460000000     0.0349661  
H47      H      0.539750000000     0.865290000000     0.041520000000     0.0357674  
H48      H      0.463390000000     0.656150000000     0.070630000000     0.0332317  
H49      H      0.508840000000     0.666030000000     0.968350000000     0.0325547  
H50      H      0.477510000000     0.591170000000     0.070280000000     0.0372147  
H51      H      0.437050000000     0.885840000000     0.031250000000     0.0146437  
H52      H      0.448680000000     0.774800000000     0.983840000000     0.0389444  
H53      H      0.543250000000     0.876720000000     0.995450000000     0.0343626  
H54      H      0.525530000000     0.702620000000     0.061640000000     0.0392253  
H55      H      0.506700000000     0.826800000000     0.977610000000     0.0365761  
H56      H      0.520940000000     0.601080000000     0.967220000000     0.0354975  
H57      H      0.509430000000     0.645350000000     0.063780000000     0.0352277  
H58      H      0.535350000000     0.651090000000     0.005130000000     0.0366316  
H59      H      0.526720000000     0.766650000000     0.066960000000     0.0432583  
H60      H      0.446440000000     0.832410000000     0.999260000000     0.0400002  
H61      H      0.443790000000     0.604550000000     0.039770000000     0.0337094  
H62      H      0.471600000000     0.899500000000     0.083850000000     0.0857645  
H63      H      0.444240000000     0.864500000000     0.089720000000     0.0777904  
H64      H      0.552930000000     0.265180000000     0.034370000000     0.042388   
H65      H      0.559900000000     0.156180000000     0.969840000000     0.0337134  
H66      H      0.454550000000     0.165200000000     0.007910000000     0.0401587  
H67      H      0.553900000000     0.371820000000     0.975140000000     0.0328787  
H68      H      0.530180000000     0.105420000000     0.946200000000     0.0359582  
H69      H      0.492510000000     0.310700000000     0.049510000000     0.0324348  
H70      H      0.531660000000     0.320960000000     0.944650000000     0.0331822  
H71      H      0.481540000000     0.375760000000     0.052060000000     0.0350829  
H72      H      0.451470000000     0.099960000000     0.015870000000     0.0131524  
H73      H      0.548580000000     0.201190000000     0.030580000000     0.038981   
H74      H      0.558340000000     0.090700000000     0.981400000000     0.0358774  
H75      H      0.470760000000     0.275170000000     0.955530000000     0.0391981  
H76      H      0.549490000000     0.143840000000     0.014890000000     0.0350427  
H77      H      0.518940000000     0.386070000000     0.946470000000     0.0370645  
H78      H      0.463940000000     0.326310000000     0.014610000000     0.0366655  
H79      H      0.486300000000     0.332440000000     0.954460000000     0.0355315  
H80      H      0.468760000000     0.211290000000     0.949390000000     0.0438958  
H81      H      0.488850000000     0.148090000000     0.036040000000     0.0416726  
H82      H      0.527470000000     0.363780000000     0.049500000000     0.0352839  
H83      H      0.446350000000     0.087550000000     0.952610000000     0.087724   
H84      H      0.427310000000     0.126340000000     0.964400000000     0.0762145  
H85      H      0.519300000000     0.022070000000     0.782960000000     0.0423757  
H86      H      0.451340000000     0.037630000000     0.676010000000     0.0338999  
H87      H      0.490400000000     0.932900000000     0.674470000000     0.0403229  
H88      H      0.452380000000     0.024060000000     0.888930000000     0.0330577  
H89      H      0.429210000000     0.011390000000     0.622030000000     0.0355031  
H90      H      0.531210000000     0.964590000000     0.826880000000     0.032211   
H91      H      0.425430000000     0.000340000000     0.837240000000     0.0330341  
H92      H      0.534080000000     0.954920000000     0.892860000000     0.0344948  
H93      H      0.500540000000     0.937400000000     0.608770000000     0.0128628  
H94      H      0.516430000000     0.020040000000     0.718360000000     0.0392249  
H95      H      0.462230000000     0.043260000000     0.610710000000     0.0360098  
H96      H      0.434760000000     0.945940000000     0.789090000000     0.0389383  
H97      H      0.496680000000     0.029630000000     0.663040000000     0.0360933  
H98      H      0.428390000000     0.986190000000     0.903440000000     0.0358687  
H99      H      0.497080000000     0.935950000000     0.843550000000     0.0362654  
H100     H      0.437160000000     0.955780000000     0.848790000000     0.0344208  
H101     H      0.429670000000     0.946490000000     0.724490000000     0.0437165  
H102     H      0.519040000000     0.968590000000     0.662060000000     0.0417831  
H103     H      0.531960000000     0.000060000000     0.879350000000     0.0361619  
H104     H      0.437960000000     0.933940000000     0.593640000000     0.0871763  
H105     H      0.448340000000     0.910530000000     0.630630000000     0.0763716  
H106     H      0.571740000000     0.047730000000     0.279970000000     0.0423372  
H107     H      0.465070000000     0.018350000000     0.184040000000     0.0326252  
H108     H      0.571110000000     0.982800000000     0.174700000000     0.0408333  
H109     H      0.550980000000     0.060890000000     0.386110000000     0.0341311  
H110     H      0.464170000000     0.977380000000     0.135410000000     0.0361343  
H111     H      0.556690000000     0.962190000000     0.335840000000     0.033328   
H112     H      0.512310000000     0.064800000000     0.334640000000     0.0327314  
H113     H      0.550550000000     0.959520000000     0.401760000000     0.0368822  
H114     H      0.565980000000     0.987210000000     0.107650000000     0.0145231  
H115     H      0.563350000000     0.041690000000     0.215960000000     0.0386883  
H116     H      0.459930000000     0.021050000000     0.117820000000     0.0335917  
H117     H      0.485150000000     0.976010000000     0.298170000000     0.0395256  
H118     H      0.498360000000     0.045560000000     0.163610000000     0.0363015  
H119     H      0.505680000000     0.063260000000     0.400820000000     0.0354293  
H120     H      0.511700000000     0.968010000000     0.351050000000     0.0370498  
H121     H      0.485420000000     0.028530000000     0.349680000000     0.0373034  
H122     H      0.478970000000     0.967330000000     0.234310000000     0.0429094  
H123     H      0.558290000000     0.025080000000     0.157600000000     0.0395854  
H124     H      0.579780000000     0.993520000000     0.386770000000     0.0322295  
H125     H      0.533870000000     0.931970000000     0.102960000000     0.0858278  
H126     H      0.563200000000     0.932260000000     0.137070000000     0.0778007  
H127     H      0.943630000000     0.447250000000     0.763330000000     0.0420005  
H128     H      0.043470000000     0.485630000000     0.662910000000     0.0330831  
H129     H      0.936100000000     0.518550000000     0.663190000000     0.041021   
H130     H      0.957160000000     0.433710000000     0.865150000000     0.0333228  
H131     H      0.038430000000     0.527220000000     0.614730000000     0.0376395  
H132     H      0.959120000000     0.536300000000     0.822390000000     0.0331535  
H133     H      0.997080000000     0.431440000000     0.814700000000     0.0324073  
H134     H      0.964650000000     0.534030000000     0.888620000000     0.0373802  
H135     H      0.935400000000     0.516880000000     0.596580000000     0.0150431  
H136     H      0.951000000000     0.454600000000     0.699440000000     0.0388506  
H137     H      0.042990000000     0.483930000000     0.596170000000     0.0338245  
H138     H      0.023170000000     0.526690000000     0.781660000000     0.0389991  
H139     H      0.009560000000     0.457420000000     0.644960000000     0.036559   
H140     H      0.001830000000     0.427800000000     0.880670000000     0.0357004  
H141     H      0.003280000000     0.526160000000     0.837880000000     0.0354099  
H142     H      0.025370000000     0.465110000000     0.832950000000     0.0365793  
H143     H      0.027870000000     0.536550000000     0.717870000000     0.0432227  
H144     H      0.948120000000     0.476940000000     0.643810000000     0.040401   
H145     H      0.932620000000     0.504060000000     0.870860000000     0.0326402  
H146     H      0.968490000000     0.571350000000     0.590240000000     0.0847322  
H147     H      0.942390000000     0.570820000000     0.626930000000     0.0770617  
H148     H      0.957880000000     0.541180000000     0.255110000000     0.0424654  
H149     H      0.995310000000     0.433910000000     0.166110000000     0.0331001  
H150     H      0.039680000000     0.536300000000     0.158630000000     0.0409036  
H151     H      0.939130000000     0.531160000000     0.360080000000     0.0345228  
H152     H      0.038570000000     0.432570000000     0.118460000000     0.0370943  
H153     H      0.042310000000     0.535770000000     0.316620000000     0.0331901  
H154     H      0.941110000000     0.487310000000     0.313310000000     0.0327273  
H155     H      0.040370000000     0.536890000000     0.382850000000     0.0372534  
H156     H      0.038500000000     0.532250000000     0.092080000000     0.0149432  
H157     H      0.968640000000     0.528220000000     0.192550000000     0.0389194  
H158     H      0.994770000000     0.428550000000     0.100170000000     0.0352295  
H159     H      0.034710000000     0.462570000000     0.284790000000     0.0394505  
H160     H      0.970300000000     0.468550000000     0.145070000000     0.0369283  
H161     H      0.938150000000     0.488070000000     0.379840000000     0.0354171  
H162     H      0.036650000000     0.492850000000     0.336430000000     0.0364957  
H163     H      0.977540000000     0.464350000000     0.333860000000     0.0371617  
H164     H      0.047960000000     0.452040000000     0.222200000000     0.0432461  
H165     H      0.996660000000     0.528070000000     0.139790000000     0.0407809  
H166     H      0.006870000000     0.563240000000     0.362250000000     0.0326084  
H167     H      0.087950000000     0.491560000000     0.088620000000     0.0834562  
H168     H      0.091300000000     0.520070000000     0.123190000000     0.0769368  
H169     H      0.279270000000     0.030910000000     0.442580000000     0.0419317  
H170     H      0.181980000000     0.006040000000     0.546860000000     0.0333245  
H171     H      0.170990000000     0.966520000000     0.442200000000     0.0409264  
H172     H      0.379770000000     0.042520000000     0.456840000000     0.0340369  
H173     H      0.128340000000     0.971160000000     0.546960000000     0.037181   
H174     H      0.336830000000     0.940340000000     0.461420000000     0.0330078  
H175     H      0.328830000000     0.046340000000     0.495910000000     0.0324174  
H176     H      0.403090000000     0.942490000000     0.469600000000     0.0366941  
H177     H      0.105360000000     0.977380000000     0.444910000000     0.0145415  
H178     H      0.215370000000     0.028490000000     0.451840000000     0.0387041  
H179     H      0.116420000000     0.016840000000     0.550040000000     0.0336946  
H180     H      0.293880000000     0.951760000000     0.523270000000     0.0394098  
H181     H      0.165980000000     0.034370000000     0.512050000000     0.036505   
H182     H      0.394170000000     0.050220000000     0.501590000000     0.0366368  
H183     H      0.350930000000     0.951850000000     0.505710000000     0.0356599  
H184     H      0.346350000000     0.013390000000     0.525500000000     0.0375584  
H185     H      0.229740000000     0.946980000000     0.530100000000     0.0435495  
H186     H      0.158340000000     0.011140000000     0.451920000000     0.0398925  
H187     H      0.386620000000     0.970650000000     0.435240000000     0.0330565  
H188     H      0.093640000000     0.927130000000     0.483060000000     0.0844413  
H189     H      0.128100000000     0.920400000000     0.454870000000     0.0772462  
H190     H      0.731650000000     0.974930000000     0.564340000000     0.0419279  
H191     H      0.835850000000     0.046360000000     0.563540000000     0.0336377  
H192     H      0.825690000000     0.006260000000     0.458990000000     0.0401768  
H193     H      0.622470000000     0.030020000000     0.576030000000     0.0328549  
H194     H      0.883860000000     0.071950000000     0.530080000000     0.0353872  
H195     H      0.680430000000     0.958250000000     0.511930000000     0.032215   
H196     H      0.670250000000     0.063120000000     0.549290000000     0.0331488  
H197     H      0.614940000000     0.952710000000     0.507660000000     0.0361912  
H198     H      0.891980000000     0.001010000000     0.454480000000     0.012559   
H199     H      0.795160000000     0.980970000000     0.553870000000     0.0388975  
H200     H      0.901850000000     0.040200000000     0.560140000000     0.0359695  
H201     H      0.711100000000     0.054060000000     0.484960000000     0.0392938  
H202     H      0.850820000000     0.002260000000     0.553770000000     0.0356751  
H203     H      0.604030000000     0.059180000000     0.543580000000     0.0372432  
H204     H      0.661270000000     0.991300000000     0.483490000000     0.0372949  
H205     H      0.655080000000     0.052360000000     0.505160000000     0.0362784  
H206     H      0.774710000000     0.062460000000     0.476960000000     0.0436581  
H207     H      0.845020000000     0.979440000000     0.493100000000     0.0415159  
H208     H      0.630270000000     0.959770000000     0.552230000000     0.0338599  
H209     H      0.901580000000     0.064030000000     0.448080000000     0.0873186  
H210     H      0.862640000000     0.050470000000     0.430050000000     0.0762367  
H211     H      0.938860000000     0.733640000000     0.465580000000     0.0420244  
H212     H      0.004330000000     0.834470000000     0.455960000000     0.0334313  
H213     H      0.972800000000     0.838890000000     0.563820000000     0.0400464  
H214     H      0.010530000000     0.635900000000     0.450630000000     0.0329229  
H215     H      0.036700000000     0.883180000000     0.480040000000     0.0328046  
H216     H      0.927630000000     0.678910000000     0.515700000000     0.0320464  
H217     H      0.034880000000     0.684760000000     0.482810000000     0.0333109  
H218     H      0.931450000000     0.612740000000     0.516240000000     0.0332505  
H219     H      0.973110000000     0.905450000000     0.560910000000     0.0118884  
H220     H      0.941840000000     0.797430000000     0.472800000000     0.0388367  
H221     H      0.002370000000     0.900270000000     0.452260000000     0.0352443  
H222     H      0.019260000000     0.721100000000     0.545880000000     0.0393157  
H223     H      0.962230000000     0.853680000000     0.467990000000     0.0350684  
H224     H      0.039220000000     0.618850000000     0.484280000000     0.037249   
H225     H      0.962270000000     0.662310000000     0.544000000000     0.036114   
H226     H      0.023860000000     0.665190000000     0.525070000000     0.0358161  
H227     H      0.024850000000     0.784940000000     0.550370000000     0.0438959  
H228     H      0.944770000000     0.856640000000     0.529770000000     0.041188   
H229     H      0.935180000000     0.632160000000     0.472990000000     0.0353927  
H230     H      0.037630000000     0.909380000000     0.562500000000     0.0892453  
H231     H      0.021660000000     0.874530000000     0.585750000000     0.0764536  
H232     H      0.965220000000     0.282390000000     0.442740000000     0.0421639  
H233     H      0.006010000000     0.185900000000     0.544100000000     0.0328492  
H234     H      0.030610000000     0.176870000000     0.434660000000     0.0407636  
H235     H      0.949580000000     0.382260000000     0.460260000000     0.0347258  
H236     H      0.044840000000     0.135540000000     0.538620000000     0.0371867  
H237     H      0.054850000000     0.341690000000     0.459320000000     0.033129   
H238     H      0.950030000000     0.331080000000     0.498330000000     0.0324693  
H239     H      0.051400000000     0.407220000000     0.467630000000     0.0374181  
H240     H      0.023830000000     0.110870000000     0.438910000000     0.0142579  
H241     H      0.971990000000     0.218880000000     0.449200000000     0.0388332  
H242     H      0.000880000000     0.120680000000     0.549050000000     0.0345849  
H243     H      0.047130000000     0.298740000000     0.520770000000     0.0391391  
H244     H      0.974060000000     0.167720000000     0.513700000000     0.0370165  
H245     H      0.945720000000     0.396580000000     0.505490000000     0.0353687  
H246     H      0.044520000000     0.355540000000     0.503980000000     0.0356462  
H247     H      0.984180000000     0.349010000000     0.526410000000     0.0369669  
H248     H      0.056290000000     0.235350000000     0.524650000000     0.0428637  
H249     H      0.988500000000     0.161730000000     0.451020000000     0.0400163  
H250     H      0.022540000000     0.390200000000     0.434100000000     0.03314    
H251     H      0.080630000000     0.102580000000     0.468040000000     0.0845895  
H252     H      0.080610000000     0.136930000000     0.439200000000     0.0769183  
N1       N      0.898620000000     0.483850000000     0.007700000000    -0.192091   
N2       N      0.824810000000     0.488890000000     0.014480000000    -0.106193   
N3       N      0.675660000000     0.482130000000     0.030330000000    -0.113443   
N4       N      0.601730000000     0.486640000000     0.022610000000    -0.182049   
N5       N      0.870180000000     0.461000000000     0.955560000000    -0.191068   
N6       N      0.100710000000     0.474030000000     0.967790000000    -0.192845   
N7       N      0.175050000000     0.475120000000     0.962210000000    -0.106698   
N8       N      0.323530000000     0.490800000000     0.985870000000    -0.113192   
N9       N      0.397320000000     0.487470000000     0.994690000000    -0.181754   
N10      N      0.118690000000     0.494810000000     0.910470000000    -0.19113    
N11      N      0.492790000000     0.886850000000     0.019970000000    -0.192429   
N12      N      0.490100000000     0.813460000000     0.030040000000    -0.106549   
N13      N      0.481760000000     0.663880000000     0.017820000000    -0.113243   
N14      N      0.491970000000     0.590550000000     0.015040000000    -0.181602   
N15      N      0.466920000000     0.873370000000     0.076540000000    -0.191279   
N16      N      0.502240000000     0.090040000000     0.992200000000    -0.192453   
N17      N      0.505930000000     0.163600000000     0.984440000000    -0.106143   
N18      N      0.516430000000     0.312900000000     0.998410000000    -0.113228   
N19      N      0.507260000000     0.386310000000     0.002410000000    -0.181836   
N20      N      0.451420000000     0.113070000000     0.961620000000    -0.190918   
N21      N      0.477150000000     0.988700000000     0.604360000000    -0.192404   
N22      N      0.467170000000     0.983870000000     0.678330000000    -0.106506   
N23      N      0.479760000000     0.987560000000     0.829370000000    -0.112708   
N24      N      0.485020000000     0.981260000000     0.903400000000    -0.181291   
N25      N      0.445970000000     0.935880000000     0.620110000000    -0.191132   
N26      N      0.509760000000     0.995440000000     0.108370000000    -0.191989   
N27      N      0.516790000000     0.995940000000     0.182650000000    -0.106357   
N28      N      0.537160000000     0.014640000000     0.331570000000    -0.11365    
N29      N      0.531050000000     0.012840000000     0.406060000000    -0.18192    
N30      N      0.539420000000     0.942930000000     0.127790000000    -0.191303   
N31      N      0.991390000000     0.507290000000     0.591860000000    -0.192165   
N32      N      0.991080000000     0.506010000000     0.666460000000    -0.106332   
N33      N      0.974860000000     0.482940000000     0.815000000000    -0.113623   
N34      N      0.978930000000     0.478980000000     0.889370000000    -0.182583   
N35      N      0.964950000000     0.559890000000     0.615200000000    -0.191035   
N36      N      0.020970000000     0.478290000000     0.091710000000    -0.192408   
N37      N      0.020410000000     0.484060000000     0.166120000000    -0.106735   
N38      N      0.990520000000     0.514150000000     0.311140000000    -0.113588   
N39      N      0.986840000000     0.516850000000     0.385610000000    -0.182141   
N40      N      0.077200000000     0.498580000000     0.113180000000    -0.19113    
N41      N      0.105610000000     0.991790000000     0.500120000000    -0.192261   
N42      N      0.179640000000     0.982300000000     0.495780000000    -0.106373   
N43      N      0.329310000000     0.994220000000     0.475100000000    -0.11341    
N44      N      0.403740000000     0.998180000000     0.480750000000    -0.181524   
N45      N      0.119630000000     0.934580000000     0.477080000000    -0.190819   
N46      N      0.901730000000     0.025670000000     0.504710000000    -0.192271   
N47      N      0.827330000000     0.029960000000     0.510200000000    -0.106472   
N48      N      0.679040000000     0.009900000000     0.533860000000    -0.11344    
N49      N      0.604630000000     0.004000000000     0.529910000000    -0.181572   
N50      N      0.876370000000     0.054180000000     0.453840000000    -0.191112   
N51      N      0.995180000000     0.907360000000     0.508650000000    -0.192422   
N52      N      0.992750000000     0.833430000000     0.511250000000    -0.106252   
N53      N      0.979880000000     0.685260000000     0.495470000000    -0.113088   
N54      N      0.983210000000     0.611350000000     0.492740000000    -0.18183    
N55      N      0.024960000000     0.885020000000     0.560330000000    -0.191238   
N56      N      0.018690000000     0.110830000000     0.495710000000    -0.192156   
N57      N      0.022500000000     0.184730000000     0.490070000000    -0.106395   
N58      N      0.001320000000     0.333040000000     0.474930000000    -0.11329    
N59      N      0.995660000000     0.406840000000     0.480260000000    -0.181527   
N60      N      0.070740000000     0.127870000000     0.463450000000    -0.191079   
O1       O      0.010180000000     0.056840000000     0.469620000000    -0.560648   
O2       O      0.996750000000     0.958210000000     0.476170000000    -0.56268    
O3       O      0.953070000000     0.014160000000     0.474100000000    -0.559416   
O4       O      0.052570000000     0.000020000000     0.471820000000    -0.561905   
O5       O      0.054570000000     0.004500000000     0.530760000000    -0.556135   
O6       O      0.955010000000     0.018730000000     0.533020000000    -0.558508   
O7       O      0.997660000000     0.961810000000     0.535190000000    -0.556822   
O8       O      0.011280000000     0.060660000000     0.528620000000    -0.558157   
O9       O      0.017410000000     0.515400000000     0.437950000000    -0.560553   
O10      O      0.020000000000     0.506590000000     0.538130000000    -0.557764   
O11      O      0.021770000000     0.461240000000     0.483230000000    -0.559191   
O12      O      0.015700000000     0.560440000000     0.491700000000    -0.559527   
O13      O      0.956710000000     0.557020000000     0.491140000000    -0.555968   
O14      O      0.963030000000     0.457240000000     0.487960000000    -0.55573    
O15      O      0.960930000000     0.506260000000     0.539430000000    -0.56186    
O16      O      0.958760000000     0.508370000000     0.438900000000    -0.556139   
O17      O      0.554760000000     0.973360000000     0.514230000000    -0.558053   
O18      O      0.457270000000     0.970410000000     0.489330000000    -0.555132   
O19      O      0.518850000000     0.977700000000     0.453810000000    -0.55898    
O20      O      0.494000000000     0.965900000000     0.550570000000    -0.558803   
O21      O      0.489710000000     0.024110000000     0.556740000000    -0.558705   
O22      O      0.514320000000     0.035920000000     0.459780000000    -0.555292   
O23      O      0.453750000000     0.028560000000     0.496300000000    -0.559414   
O24      O      0.551110000000     0.031520000000     0.521120000000    -0.555952   
O25      O      0.532860000000     0.990890000000     0.052140000000    -0.558576   
O26      O      0.520520000000     0.981300000000     0.952690000000    -0.558206   
O27      O      0.529260000000     0.036000000000     0.996550000000    -0.558395   
O28      O      0.524120000000     0.936940000000     0.007540000000    -0.561781   
O29      O      0.465690000000     0.940820000000     0.015330000000    -0.559251   
O30      O      0.470820000000     0.039880000000     0.004130000000    -0.562737   
O31      O      0.462010000000     0.985840000000     0.959640000000    -0.5574     
O32      O      0.474380000000     0.995620000000     0.059020000000    -0.560825   
O33      O      0.006130000000     0.449520000000     0.040390000000    -0.559461   
O34      O      0.991610000000     0.449600000000     0.940880000000    -0.559066   
O35      O      0.048520000000     0.447300000000     0.983250000000    -0.559157   
O36      O      0.949220000000     0.451960000000     0.997740000000    -0.560692   
O37      O      0.952970000000     0.510290000000     0.003120000000    -0.558949   
O38      O      0.049900000000     0.505650000000     0.977260000000    -0.561348   
O39      O      0.988530000000     0.508200000000     0.941700000000    -0.558175   
O40      O      0.014380000000     0.507600000000     0.038930000000    -0.560078   
O41      O      0.498650000000     0.436580000000     0.034920000000    -0.557092   
O42      O      0.491720000000     0.536000000000     0.041130000000    -0.55748    
O43      O      0.445850000000     0.483370000000     0.030940000000    -0.557816   
O44      O      0.545290000000     0.489190000000     0.045180000000    -0.554842   
O45      O      0.553240000000     0.490220000000     0.986570000000    -0.563102   
O46      O      0.453930000000     0.490480000000     0.972780000000    -0.560164   
O47      O      0.502900000000     0.540270000000     0.983220000000    -0.559208   
O48      O      0.505040000000     0.440730000000     0.976260000000    -0.559818   
V1       V      0.002930000000     0.007290000000     0.470590000000     1.39438    
V2       V      0.004690000000     0.011510000000     0.534270000000     1.38227    
V3       V      0.021080000000     0.510970000000     0.487830000000     1.39522    
V4       V      0.957480000000     0.506990000000     0.489370000000     1.38558    
V5       V      0.506260000000     0.969510000000     0.501760000000     1.387      
V6       V      0.502190000000     0.032350000000     0.508710000000     1.38848    
V7       V      0.529030000000     0.986210000000     0.002000000000     1.39064    
V8       V      0.465890000000     0.990610000000     0.009750000000     1.39092    
V9       V      0.998770000000     0.447180000000     0.990650000000     1.39149    
V10      V      0.001590000000     0.510340000000     0.990300000000     1.39066    
V11      V      0.495110000000     0.486150000000     0.040420000000     1.38489    
V12      V      0.504030000000     0.490640000000     0.977370000000     1.40046    


