data_structure

_audit_creation_method RASPA-1.0
_audit_creation_date 2023-6-5
_audit_author_name 'Poobodin Mano'

_cell_length_a    55.09
_cell_length_b    59.7246
_cell_length_c    37.445
_cell_angle_alpha 89.9506
_cell_angle_beta  90.0495
_cell_angle_gamma 119.925
_cell_volume      106777

_symmetry_cell_setting          triclinic
_symmetry_space_group_name_Hall 'P 1'
_symmetry_space_group_name_H-M  'P 1'
_symmetry_Int_Tables_number     1

_symmetry_equiv_pos_as_xyz 'x,y,z'

loop_
_atom_site_label
_atom_site_type_symbol
_atom_site_fract_x
_atom_site_fract_y
_atom_site_fract_z
_atom_site_charge
Br1      Br     0.792910000000     0.889060000000     0.735730000000    -0.191006   
Br2      Br     0.025140000000     0.227160000000     0.600890000000    -0.245773   
Br3      Br     0.089100000000     0.591690000000     0.556010000000    -0.234148   
Br4      Br     0.724860000000     0.742620000000     0.788290000000    -0.236148   
Br5      Br     0.235660000000     0.931020000000     0.348890000000    -0.238346   
Br6      Br     0.413720000000     0.272360000000     0.180040000000    -0.243525   
Br7      Br     0.772190000000     0.857530000000     0.689930000000    -0.190208   
Br8      Br     0.655130000000     0.787580000000     0.897540000000    -0.256758   
Br9      Br     0.809360000000     0.660000000000     0.034980000000    -0.245176   
Br10     Br     0.545480000000     0.932690000000     0.408880000000    -0.249553   
Br11     Br     0.064530000000     0.519830000000     0.624660000000    -0.19556    
Br12     Br     0.137710000000     0.553370000000     0.150360000000    -0.193391   
Br13     Br     0.115280000000     0.571440000000     0.115900000000    -0.194002   
Br14     Br     0.450500000000     0.259010000000     0.770170000000    -0.238428   
Br15     Br     0.484430000000     0.258190000000     0.551470000000    -0.245708   
Br16     Br     0.575210000000     0.098660000000     0.450670000000    -0.246127   
Br17     Br     0.166100000000     0.419890000000     0.717960000000    -0.251066   
Br18     Br     0.351530000000     0.223300000000     0.725380000000    -0.236186   
Br19     Br     0.533170000000     0.606550000000     0.675240000000    -0.254562   
Br20     Br     0.529230000000     0.501400000000     0.150880000000    -0.249793   
Br21     Br     0.908120000000     0.120070000000     0.059910000000    -0.254499   
Br22     Br     0.887670000000     0.170050000000     0.578480000000    -0.212038   
Br23     Br     0.335500000000     0.425690000000     0.355770000000    -0.254918   
Br24     Br     0.286790000000     0.382830000000     0.139490000000    -0.240094   
Br25     Br     0.226720000000     0.433700000000     0.173390000000    -0.241392   
Br26     Br     0.384070000000     0.530030000000     0.232320000000    -0.240333   
Br27     Br     0.649790000000     0.061280000000     0.869170000000    -0.240274   
Br28     Br     0.625860000000     0.057830000000     0.074700000000    -0.193719   
Br29     Br     0.664230000000     0.076510000000     0.034410000000    -0.188829   
Br30     Br     0.208870000000     0.854370000000     0.751660000000    -0.214895   
Br31     Br     0.198620000000     0.864840000000     0.228520000000    -0.2406     
Br32     Br     0.500820000000     0.927160000000     0.995660000000    -0.248516   
Br33     Br     0.990450000000     0.655210000000     0.685220000000    -0.25981    
Br34     Br     0.912460000000     0.729700000000     0.165800000000    -0.254583   
Br35     Br     0.862680000000     0.606860000000     0.618150000000    -0.243258   
Br36     Br     0.038930000000     0.754640000000     0.525660000000    -0.24136    
C1       C      0.956490000000     0.678220000000     0.624710000000     0.482765   
C2       C      0.938550000000     0.673900000000     0.491460000000     0.475315   
C3       C      0.999650000000     0.693580000000     0.547460000000     0.485795   
C4       C      0.896140000000     0.658790000000     0.570110000000     0.482532   
C5       C      0.203460000000     0.808290000000     0.897950000000     0.470581   
C6       C      0.220580000000     0.817330000000     0.764500000000     0.470642   
C7       C      0.161370000000     0.782510000000     0.818020000000     0.474548   
C8       C      0.264050000000     0.844040000000     0.843900000000     0.471518   
C9       C      0.585170000000     0.003540000000     0.038850000000     0.486596   
C10      C      0.602500000000     0.007590000000     0.905400000000     0.483395   
C11      C      0.645350000000     0.027090000000     0.985640000000     0.487913   
C12      C      0.541050000000     0.983650000000     0.960580000000     0.481769   
C13      C      0.296650000000     0.437020000000     0.304360000000     0.484529   
C14      C      0.315050000000     0.439880000000     0.171380000000     0.488821   
C15      C      0.358370000000     0.468540000000     0.250020000000     0.487751   
C16      C      0.255000000000     0.409280000000     0.224480000000     0.485683   
C17      C      0.924930000000     0.175850000000     0.096280000000     0.482515   
C18      C      0.940510000000     0.187460000000     0.230020000000     0.474894   
C19      C      0.981370000000     0.220010000000     0.153000000000     0.475168   
C20      C      0.884210000000     0.143370000000     0.172240000000     0.477329   
C21      C      0.554200000000     0.571660000000     0.613330000000     0.48319    
C22      C      0.570200000000     0.567890000000     0.480850000000     0.47377    
C23      C      0.512810000000     0.559310000000     0.532860000000     0.477112   
C24      C      0.612050000000     0.580280000000     0.560740000000     0.473396   
C25      C      0.259480000000     0.429590000000     0.809430000000     0.472463   
C26      C      0.258500000000     0.424520000000     0.674270000000     0.473812   
C27      C      0.285710000000     0.402230000000     0.744700000000     0.473405   
C28      C      0.232280000000     0.450990000000     0.739910000000     0.485177   
C29      C      0.424460000000     0.233230000000     0.590030000000     0.485899   
C30      C      0.428570000000     0.210570000000     0.719440000000     0.490058   
C31      C      0.445710000000     0.193520000000     0.633910000000     0.474228   
C32      C      0.407060000000     0.250320000000     0.675890000000     0.486948   
C33      C      0.105810000000     0.508410000000     0.978260000000     0.472951   
C34      C      0.112890000000     0.498740000000     0.111690000000     0.484916   
C35      C      0.136740000000     0.480470000000     0.030940000000     0.476202   
C36      C      0.082070000000     0.525760000000     0.059600000000     0.486367   
C37      C      0.722050000000     0.825070000000     0.228280000000     0.472629   
C38      C      0.727620000000     0.800810000000     0.356720000000     0.473637   
C39      C      0.745460000000     0.785570000000     0.271440000000     0.474097   
C40      C      0.704430000000     0.840500000000     0.313340000000     0.472371   
C41      C      0.912260000000     0.683420000000     0.988280000000     0.474137   
C42      C      0.903500000000     0.679050000000     0.123160000000     0.48364    
C43      C      0.875570000000     0.700370000000     0.053190000000     0.488064   
C44      C      0.939810000000     0.662280000000     0.057180000000     0.473312   
C45      C      0.558160000000     0.016560000000     0.403750000000     0.478072   
C46      C      0.577320000000     0.009430000000     0.534630000000     0.472199   
C47      C      0.547430000000     0.041230000000     0.485550000000     0.481764   
C48      C      0.588280000000     0.984660000000     0.450900000000     0.48238    
C49      C      0.415220000000     0.184880000000     0.089920000000     0.47381    
C50      C      0.414310000000     0.195960000000     0.223970000000     0.476799   
C51      C      0.388700000000     0.141770000000     0.166450000000     0.471702   
C52      C      0.440900000000     0.238940000000     0.148760000000     0.481964   
C53      C      0.579070000000     0.544910000000     0.975420000000     0.473093   
C54      C      0.582620000000     0.546460000000     0.110580000000     0.485822   
C55      C      0.598920000000     0.593590000000     0.040280000000     0.475165   
C56      C      0.562650000000     0.497190000000     0.045910000000     0.475631   
C57      C      0.246220000000     0.859630000000     0.400080000000     0.473514   
C58      C      0.227190000000     0.836570000000     0.268560000000     0.481465   
C59      C      0.213210000000     0.800550000000     0.352230000000     0.471711   
C60      C      0.260170000000     0.895250000000     0.317830000000     0.484668   
C61      C      0.118120000000     0.536830000000     0.613300000000     0.479874   
C62      C      0.113570000000     0.509540000000     0.484670000000     0.473082   
C63      C      0.127450000000     0.567550000000     0.529440000000     0.481658   
C64      C      0.103420000000     0.477510000000     0.568810000000     0.472982   
C65      C      0.926700000000     0.158390000000     0.594220000000     0.477572   
C66      C      0.939360000000     0.181810000000     0.725210000000     0.472606   
C67      C      0.969110000000     0.216950000000     0.642950000000     0.481993   
C68      C      0.897790000000     0.124460000000     0.675080000000     0.473037   
C69      C      0.712080000000     0.819040000000     0.721770000000     0.486465   
C70      C      0.713950000000     0.821360000000     0.857200000000     0.482215   
C71      C      0.686660000000     0.770940000000     0.792170000000     0.487039   
C72      C      0.739260000000     0.868890000000     0.785150000000     0.484282   
C73      C      0.751050000000     0.934980000000     0.767430000000    -0.032817   
C74      C      0.869900000000     0.056990000000     0.706160000000    -0.031591   
C75      C      0.848640000000     0.091440000000     0.687240000000    -0.00147485 
C76      C      0.886480000000     0.079130000000     0.680110000000    -0.00190112 
C77      C      0.803840000000     0.002680000000     0.701300000000    -0.0524702  
C78      C      0.811100000000     0.996710000000     0.773940000000    -0.0525785  
C79      C      0.822690000000     0.024140000000     0.721310000000     0.0624853  
C80      C      0.833850000000     0.068660000000     0.713150000000    -0.0320306  
C81      C      0.793230000000     0.974990000000     0.753490000000     0.061592   
C82      C      0.793710000000     0.935110000000     0.752200000000    -0.0609049  
C83      C      0.789110000000     0.978340000000     0.717130000000    -0.0547749  
C84      C      0.783910000000     0.908740000000     0.770030000000     0.113094   
C85      C      0.739950000000     0.910210000000     0.789240000000     5.82592e-06
C86      C      0.825600000000     0.021190000000     0.758130000000    -0.0552587  
C87      C      0.998060000000     0.286330000000     0.616670000000    -0.0333688  
C88      C      0.108920000000     0.419950000000     0.599520000000    -0.0330841  
C89      C      0.066660000000     0.432320000000     0.574570000000    -0.000738591
C90      C      0.118660000000     0.445670000000     0.579970000000    -0.000544785
C91      C      0.063580000000     0.355260000000     0.571650000000    -0.0528636  
C92      C      0.055080000000     0.341340000000     0.643770000000    -0.0507486  
C93      C      0.072370000000     0.374530000000     0.597730000000     0.0633646  
C94      C      0.060230000000     0.407990000000     0.595110000000    -0.0318447  
C95      C      0.044990000000     0.321980000000     0.617590000000     0.0616379  
C96      C      0.036420000000     0.277950000000     0.615300000000    -0.0631101  
C97      C      0.049950000000     0.329220000000     0.581330000000    -0.054454   
C98      C      0.018520000000     0.250500000000     0.630830000000     0.120794   
C99      C      0.978420000000     0.261010000000     0.635200000000     0.00170824 
C100     C      0.068640000000     0.367430000000     0.634040000000    -0.0541561  
C101     C      0.169070000000     0.635940000000     0.495020000000    -0.0338323  
C102     C      0.160050000000     0.734630000000     0.387730000000    -0.0320355  
C103     C      0.220260000000     0.765680000000     0.374120000000    -0.000289485
C104     C      0.172140000000     0.763250000000     0.378500000000    -0.00106107 
C105     C      0.170860000000     0.705300000000     0.461210000000    -0.0528314  
C106     C      0.150520000000     0.659740000000     0.421620000000    -0.05255    
C107     C      0.169820000000     0.706290000000     0.423930000000     0.0621331  
C108     C      0.204830000000     0.736990000000     0.383380000000    -0.0321567  
C109     C      0.152360000000     0.658850000000     0.458880000000     0.0616079  
C110     C      0.121170000000     0.625630000000     0.499930000000    -0.0632995  
C111     C      0.162140000000     0.681830000000     0.478670000000    -0.0552471  
C112     C      0.111060000000     0.597770000000     0.512370000000     0.12053    
C113     C      0.162810000000     0.608820000000     0.504870000000     0.00329514 
C114     C      0.159050000000     0.683230000000     0.404170000000    -0.0554989  
C115     C      0.635640000000     0.720040000000     0.838420000000    -0.0379134  
C116     C      0.642830000000     0.647490000000     0.992080000000    -0.031627   
C117     C      0.589780000000     0.629690000000     0.028960000000    -0.00205626 
C118     C      0.638630000000     0.637880000000     0.030690000000    -0.00128512 
C119     C      0.643200000000     0.696580000000     0.945830000000    -0.0496662  
C120     C      0.629210000000     0.666160000000     0.884210000000    -0.0535733  
C121     C      0.629800000000     0.669650000000     0.949020000000     0.0615919  
C122     C      0.594480000000     0.639760000000     0.990450000000    -0.0320149  
C123     C      0.642520000000     0.693080000000     0.881040000000     0.0651481  
C124     C      0.679650000000     0.718530000000     0.839070000000    -0.066231   
C125     C      0.649690000000     0.708290000000     0.912200000000    -0.0558757  
C126     C      0.685260000000     0.728110000000     0.800340000000     0.123603   
C127     C      0.641740000000     0.730320000000     0.800030000000     0.00209066 
C128     C      0.623020000000     0.654470000000     0.917850000000    -0.0541063  
C129     C      0.315460000000     0.961900000000     0.288080000000    -0.0333081  
C130     C      0.330230000000     0.074250000000     0.188200000000    -0.0321436  
C131     C      0.391500000000     0.103920000000     0.185280000000    -0.00013288 
C132     C      0.344220000000     0.103410000000     0.181970000000    -0.000603341
C133     C      0.334220000000     0.039610000000     0.261640000000    -0.0523789  
C134     C      0.309130000000     0.995990000000     0.217690000000    -0.0524967  
C135     C      0.334590000000     0.042730000000     0.224570000000     0.0621378  
C136     C      0.374090000000     0.074710000000     0.190550000000    -0.0321844  
C137     C      0.308660000000     0.992870000000     0.254840000000     0.0624109  
C138     C      0.272200000000     0.962120000000     0.293650000000    -0.0623735  
C139     C      0.321500000000     0.014970000000     0.276760000000    -0.0551368  
C140     C      0.255590000000     0.933460000000     0.304500000000     0.120453   
C141     C      0.302150000000     0.933030000000     0.295320000000     0.00372473 
C142     C      0.322090000000     0.020700000000     0.202540000000    -0.0551311  
C143     C      0.500030000000     0.307340000000     0.134870000000    -0.0339401  
C144     C      0.512980000000     0.425910000000     0.058950000000    -0.0295917  
C145     C      0.573220000000     0.462360000000     0.056240000000    -0.000500553
C146     C      0.522730000000     0.454700000000     0.059400000000    -0.00331731 
C147     C      0.513250000000     0.375240000000     0.059400000000    -0.0558318  
C148     C      0.508370000000     0.361670000000     0.131660000000    -0.0540927  
C149     C      0.523040000000     0.394630000000     0.085740000000     0.063564   
C150     C      0.559880000000     0.432870000000     0.056360000000    -0.0313311  
C151     C      0.497620000000     0.342160000000     0.105430000000     0.0615882  
C152     C      0.456990000000     0.308280000000     0.134930000000    -0.0643333  
C153     C      0.500550000000     0.349220000000     0.069300000000    -0.0519952  
C154     C      0.438820000000     0.278860000000     0.139500000000     0.121951   
C155     C      0.485480000000     0.277930000000     0.136700000000     0.00327635 
C156     C      0.520860000000     0.387630000000     0.121770000000    -0.0521481  
C157     C      0.689340000000     0.795020000000     0.630520000000    -0.0348198  
C158     C      0.748310000000     0.815270000000     0.449190000000    -0.0320832  
C159     C      0.705270000000     0.771970000000     0.408800000000    -0.00179639 
C160     C      0.754980000000     0.808350000000     0.412570000000    -0.00185459 
C161     C      0.725880000000     0.784390000000     0.531120000000    -0.0523868  
C162     C      0.709510000000     0.820790000000     0.546160000000    -0.0536629  
C163     C      0.721190000000     0.797250000000     0.502950000000     0.0613251  
C164     C      0.699860000000     0.779900000000     0.445520000000    -0.0321131  
C165     C      0.714780000000     0.808360000000     0.574300000000     0.063092   
C166     C      0.739410000000     0.826460000000     0.630110000000    -0.0636692  
C167     C      0.722600000000     0.789770000000     0.566590000000    -0.0557437  
C168     C      0.736640000000     0.838780000000     0.664410000000     0.115428   
C169     C      0.685380000000     0.805880000000     0.665860000000     0.00150399 
C170     C      0.712550000000     0.815280000000     0.510770000000    -0.0551974  
C171     C      0.740240000000     0.827210000000     0.951700000000    -0.033039   
C172     C      0.745750000000     0.846440000000     0.136330000000    -0.0320451  
C173     C      0.693010000000     0.820670000000     0.175430000000    -0.00225023 
C174     C      0.744980000000     0.852880000000     0.175770000000    -0.00156793 
C175     C      0.720340000000     0.816360000000     0.064310000000    -0.0551654  
C176     C      0.720970000000     0.855560000000     0.022740000000    -0.0529219  
C177     C      0.719720000000     0.837170000000     0.081100000000     0.0617636  
C178     C      0.695730000000     0.815670000000     0.136000000000    -0.0317107  
C179     C      0.720930000000     0.834620000000     0.005870000000     0.0615362  
C180     C      0.691620000000     0.815020000000     0.954470000000    -0.0632915  
C181     C      0.720320000000     0.814800000000     0.027050000000    -0.054955   
C182     C      0.689450000000     0.818060000000     0.914020000000     0.121886   
C183     C      0.742040000000     0.831740000000     0.911440000000     0.000416643
C184     C      0.720270000000     0.856780000000     0.059980000000    -0.053352   
C185     C      0.856920000000     0.741210000000     0.095280000000    -0.037025   
C186     C      0.749160000000     0.738950000000     0.213350000000    -0.0321072  
C187     C      0.787260000000     0.781400000000     0.259240000000    -0.00159721 
C188     C      0.738960000000     0.743740000000     0.249100000000    -0.002065   
C189     C      0.803220000000     0.727090000000     0.187490000000    -0.0509581  
C190     C      0.799390000000     0.744930000000     0.119810000000    -0.0539746  
C191     C      0.789630000000     0.741490000000     0.183580000000     0.0613283  
C192     C      0.796000000000     0.775870000000     0.223100000000    -0.0318798  
C193     C      0.813160000000     0.730720000000     0.123780000000     0.0639838  
C194     C      0.814860000000     0.698950000000     0.084840000000    -0.065926   
C195     C      0.814990000000     0.721780000000     0.157940000000    -0.0551635  
C196     C      0.827360000000     0.696250000000     0.049630000000     0.123949   
C197     C      0.869830000000     0.738590000000     0.060410000000     0.00168847 
C198     C      0.787800000000     0.750410000000     0.149390000000    -0.0546842  
C199     C      0.640580000000     0.967690000000     0.415910000000    -0.0331768  
C200     C      0.653110000000     0.858140000000     0.349440000000    -0.0319362  
C201     C      0.711920000000     0.883690000000     0.328420000000    -0.00158954 
C202     C      0.662680000000     0.844870000000     0.322550000000    -0.00168999 
C203     C      0.656330000000     0.898320000000     0.402780000000    -0.0559411  
C204     C      0.639690000000     0.928390000000     0.363880000000    -0.0550666  
C205     C      0.659350000000     0.899970000000     0.365360000000     0.0617968  
C206     C      0.699850000000     0.894980000000     0.355050000000    -0.0318678  
C207     C      0.636390000000     0.926610000000     0.401290000000     0.0611208  
C208     C      0.594910000000     0.929940000000     0.409610000000    -0.063011   
C209     C      0.644890000000     0.911540000000     0.420490000000    -0.0530848  
C210     C      0.580810000000     0.941420000000     0.432930000000     0.120389   
C211     C      0.629910000000     0.980700000000     0.441430000000    -0.000199116
C212     C      0.651040000000     0.915150000000     0.346220000000    -0.0532465  
C213     C      0.137170000000     0.543850000000     0.705930000000    -0.0350256  
C214     C      0.078260000000     0.500370000000     0.884980000000    -0.0326282  
C215     C      0.131440000000     0.528440000000     0.923070000000    -0.000863737
C216     C      0.081380000000     0.490330000000     0.921370000000    -0.000562726
C217     C      0.106480000000     0.503230000000     0.803600000000    -0.0529276  
C218     C      0.100720000000     0.545310000000     0.782820000000    -0.0534068  
C219     C      0.103230000000     0.518330000000     0.829670000000     0.0612468  
C220     C      0.125870000000     0.536170000000     0.886490000000    -0.0324634  
C221     C      0.105780000000     0.531230000000     0.756920000000     0.0627767  
C222     C      0.086440000000     0.525080000000     0.696930000000    -0.0645319  
C223     C      0.107290000000     0.509310000000     0.767410000000    -0.055617   
C224     C      0.091520000000     0.539430000000     0.661360000000     0.117026   
C225     C      0.143580000000     0.557620000000     0.669810000000     0.00355965 
C226     C      0.099010000000     0.538740000000     0.818900000000    -0.0549108  
C227     C      0.088720000000     0.478140000000     0.205630000000    -0.0331275  
C228     C      0.137720000000     0.503730000000     0.392710000000    -0.0318856  
C229     C      0.086060000000     0.492460000000     0.429810000000    -0.000355015
C230     C      0.140110000000     0.515170000000     0.429870000000    -0.000825078
C231     C      0.122730000000     0.482660000000     0.320080000000    -0.0547373  
C232     C      0.099490000000     0.506030000000     0.278270000000    -0.0553738  
C233     C      0.111720000000     0.496880000000     0.336640000000     0.0618744  
C234     C      0.087260000000     0.481720000000     0.393210000000    -0.032051   
C235     C      0.112760000000     0.493840000000     0.261560000000     0.0621632  
C236     C      0.129860000000     0.520380000000     0.208730000000    -0.0613835  
C237     C      0.123670000000     0.481620000000     0.282800000000    -0.0531416  
C238     C      0.135010000000     0.521150000000     0.168180000000     0.112579   
C239     C      0.093580000000     0.473990000000     0.166790000000     0.00246309 
C240     C      0.099510000000     0.507900000000     0.315370000000    -0.0520264  
C241     C      0.031540000000     0.547600000000     0.049170000000    -0.0348483  
C242     C      0.001360000000     0.653630000000     0.073870000000    -0.0320145  
C243     C      0.946190000000     0.625740000000     0.040600000000    -0.00168357 
C244     C      0.987700000000     0.668770000000     0.059440000000    -0.00138832 
C245     C      0.024460000000     0.615210000000     0.034410000000    -0.0528031  
C246     C      0.016610000000     0.589070000000     0.099100000000    -0.0535322  
C247     C      0.007550000000     0.617020000000     0.060900000000     0.0615768  
C248     C      0.961710000000     0.612700000000     0.055760000000    -0.0316721  
C249     C      0.032200000000     0.586120000000     0.071900000000     0.0630985  
C250     C      0.071950000000     0.579740000000     0.083440000000    -0.0642088  
C251     C      0.037010000000     0.600100000000     0.039930000000    -0.0558289  
C252     C      0.077590000000     0.558580000000     0.096830000000     0.115949   
C253     C      0.037640000000     0.526120000000     0.060030000000     0.000234984
C254     C      0.004550000000     0.604570000000     0.093890000000    -0.054979   
C255     C      0.408780000000     0.173360000000     0.804820000000    -0.033616   
C256     C      0.430850000000     0.170420000000     0.998090000000    -0.0325449  
C257     C      0.401400000000     0.194000000000     0.032060000000    -0.00174555 
C258     C      0.438020000000     0.179550000000     0.036830000000    -5.55782e-05
C259     C      0.400300000000     0.172740000000     0.919080000000    -0.0537061  
C260     C      0.452870000000     0.198530000000     0.886540000000    -0.0527327  
C261     C      0.424510000000     0.185650000000     0.940500000000     0.0617803  
C262     C      0.397300000000     0.185050000000     0.993250000000    -0.0316893  
C263     C      0.428790000000     0.187490000000     0.865030000000     0.0618855  
C264     C      0.438020000000     0.218550000000     0.818600000000    -0.0642165  
C265     C      0.402340000000     0.174340000000     0.881870000000    -0.0536516  
C266     C      0.448030000000     0.225650000000     0.779920000000     0.123096   
C267     C      0.416680000000     0.177680000000     0.765310000000     0.00120639 
C268     C      0.450750000000     0.198090000000     0.923710000000    -0.0522671  
C269     C      0.394640000000     0.219010000000     0.500850000000    -0.0328336  
C270     C      0.439380000000     0.215000000000     0.317330000000    -0.0325238  
C271     C      0.386730000000     0.191810000000     0.277790000000    -0.000327472
C272     C      0.436950000000     0.200680000000     0.282450000000     3.51987e-05
C273     C      0.410810000000     0.195410000000     0.398950000000    -0.0529526  
C274     C      0.420100000000     0.244840000000     0.414650000000    -0.0520053  
C275     C      0.413730000000     0.212160000000     0.371040000000     0.0628737  
C276     C      0.391560000000     0.206330000000     0.312990000000    -0.0320844  
C277     C      0.416660000000     0.227900000000     0.442600000000     0.062208   
C278     C      0.445450000000     0.241860000000     0.495320000000    -0.0632069  
C279     C      0.412560000000     0.203210000000     0.434430000000    -0.0547294  
C280     C      0.449200000000     0.254100000000     0.532480000000     0.12056    
C281     C      0.396520000000     0.230900000000     0.537480000000    -0.00126614 
C282     C      0.418940000000     0.237210000000     0.379110000000    -0.0552385  
C283     C      0.495930000000     0.062260000000     0.513570000000    -0.033865   
C284     C      0.496170000000     0.172040000000     0.603990000000    -0.0306375  
C285     C      0.435830000000     0.152060000000     0.608260000000    -0.000584994
C286     C      0.485730000000     0.191220000000     0.609390000000    -0.00334462 
C287     C      0.496760000000     0.121950000000     0.593920000000    -0.0558358  
C288     C      0.494630000000     0.112680000000     0.520450000000    -0.0547289  
C289     C      0.486000000000     0.133430000000     0.570680000000     0.0628184  
C290     C      0.449360000000     0.135300000000     0.603700000000    -0.0318004  
C291     C      0.506140000000     0.101750000000     0.543520000000     0.0615046  
C292     C      0.540590000000     0.100470000000     0.505190000000    -0.0641241  
C293     C      0.506920000000     0.106390000000     0.580300000000    -0.0524621  
C294     C      0.555360000000     0.085150000000     0.495920000000     0.121912   
C295     C      0.507320000000     0.043910000000     0.507850000000     0.00313102 
C296     C      0.484820000000     0.128460000000     0.534010000000    -0.0525648  
C297     C      0.225690000000     0.486910000000     0.798950000000    -0.0336252  
C298     C      0.141350000000     0.445680000000     0.963380000000    -0.0318497  
C299     C      0.181500000000     0.483450000000     0.013060000000    -0.00139264 
C300     C      0.136800000000     0.442710000000     0.003910000000    -0.00206198 
C301     C      0.191610000000     0.452190000000     0.901980000000    -0.0532515  
C302     C      0.173550000000     0.479060000000     0.858190000000    -0.0539518  
C303     C      0.176620000000     0.463110000000     0.916960000000     0.0615142  
C304     C      0.185990000000     0.486460000000     0.972630000000    -0.0311649  
C305     C      0.188810000000     0.468400000000     0.843300000000     0.0620799  
C306     C      0.180390000000     0.446800000000     0.786200000000    -0.0669687  
C307     C      0.197560000000     0.454650000000     0.865450000000    -0.0565045  
C308     C      0.187260000000     0.451290000000     0.746320000000     0.125992   
C309     C      0.232120000000     0.490150000000     0.758730000000    -0.00253156 
C310     C      0.167400000000     0.476420000000     0.894670000000    -0.0557124  
C311     C      0.404280000000     0.308830000000     0.708140000000    -0.0332284  
C312     C      0.298480000000     0.347460000000     0.734750000000    -0.0318642  
C313     C      0.330850000000     0.402800000000     0.748810000000    -0.00163771 
C314     C      0.284660000000     0.360800000000     0.753830000000    -0.00171791 
C315     C      0.342950000000     0.341230000000     0.694600000000    -0.0553691  
C316     C      0.363690000000     0.321150000000     0.746100000000    -0.0550619  
C317     C      0.341630000000     0.346400000000     0.731030000000     0.061888   
C318     C      0.342810000000     0.387590000000     0.730080000000    -0.0320543  
C319     C      0.364590000000     0.315580000000     0.709710000000     0.0618884  
C320     C      0.357680000000     0.272450000000     0.711700000000    -0.0634837  
C321     C      0.354330000000     0.325920000000     0.684150000000    -0.0528667  
C322     C      0.366060000000     0.253870000000     0.694600000000     0.122561   
C323     C      0.415860000000     0.293810000000     0.688520000000     0.00314603 
C324     C      0.352280000000     0.336400000000     0.756520000000    -0.0523898  
C325     C      0.536080000000     0.553290000000     0.709650000000    -0.0357202  
C326     C      0.603790000000     0.560150000000     0.879780000000    -0.0327578  
C327     C      0.552500000000     0.541910000000     0.921640000000     0.000466969
C328     C      0.606210000000     0.562300000000     0.920530000000    -0.000939425
C329     C      0.566270000000     0.580280000000     0.818290000000    -0.0516854  
C330     C      0.582550000000     0.555920000000     0.767860000000    -0.0541403  
C331     C      0.578010000000     0.565420000000     0.829880000000     0.0609893  
C332     C      0.553460000000     0.539660000000     0.881210000000    -0.0326599  
C333     C      0.570790000000     0.570750000000     0.756380000000     0.0639695  
C334     C      0.576530000000     0.597560000000     0.703640000000    -0.0631425  
C335     C      0.562070000000     0.582490000000     0.781990000000    -0.056757   
C336     C      0.562510000000     0.597860000000     0.667840000000     0.121902   
C337     C      0.534210000000     0.548530000000     0.669470000000     0.0115246  
C338     C      0.585690000000     0.552810000000     0.804250000000    -0.0543962  
C339     C      0.610360000000     0.559310000000     0.205190000000    -0.033662   
C340     C      0.595270000000     0.587090000000     0.387050000000    -0.0325799  
C341     C      0.555640000000     0.541190000000     0.426810000000    -0.000999271
C342     C      0.585000000000     0.590550000000     0.423410000000    -6.33272e-05
C343     C      0.592870000000     0.551750000000     0.318440000000    -0.0550812  
C344     C      0.571120000000     0.573810000000     0.271640000000    -0.0534368  
C345     C      0.577740000000     0.563130000000     0.332110000000     0.0616655  
C346     C      0.566850000000     0.540560000000     0.389750000000    -0.0325506  
C347     C      0.584980000000     0.561440000000     0.257740000000     0.0616714  
C348     C      0.560160000000     0.534900000000     0.207490000000    -0.0643761  
C349     C      0.595690000000     0.550200000000     0.281580000000    -0.0547723  
C350     C      0.556610000000     0.536140000000     0.167150000000     0.122949   
C351     C      0.611040000000     0.561770000000     0.164500000000     0.00192238 
C352     C      0.567300000000     0.574430000000     0.308380000000    -0.0535431  
C353     C      0.904520000000     0.181770000000     0.001770000000    -0.0340443  
C354     C      0.959740000000     0.183750000000     0.822040000000    -0.0318022  
C355     C      0.921620000000     0.193040000000     0.778130000000    -0.000230795
C356     C      0.956780000000     0.176240000000     0.782630000000    -0.000726553
C357     C      0.908300000000     0.161330000000     0.890340000000    -0.0528651  
C358     C      0.950690000000     0.200250000000     0.931510000000    -0.0527941  
C359     C      0.931650000000     0.181470000000     0.873430000000     0.0623831  
C360     C      0.927690000000     0.199950000000     0.817650000000    -0.0320378  
C361     C      0.927760000000     0.179620000000     0.948470000000     0.0613582  
C362     C      0.924900000000     0.154440000000     0.000460000000    -0.0646119  
C363     C      0.906150000000     0.160450000000     0.927490000000    -0.0549644  
C364     C      0.928680000000     0.155350000000     0.041240000000     0.122525   
C365     C      0.909450000000     0.187390000000     0.041650000000     0.00461354 
C366     C      0.952560000000     0.201400000000     0.894240000000    -0.0560345  
C367     C      0.945260000000     0.156090000000     0.502400000000    -0.0357309  
C368     C      0.924630000000     0.193850000000     0.323180000000    -0.0323556  
C369     C      0.963200000000     0.182700000000     0.284300000000    -0.00162867 
C370     C      0.935910000000     0.206330000000     0.286710000000    -0.00121346 
C371     C      0.953680000000     0.197730000000     0.405360000000    -0.0524321  
C372     C      0.909320000000     0.148610000000     0.422130000000    -0.0536313  
C373     C      0.937680000000     0.180970000000     0.377820000000     0.0616098  
C374     C      0.951160000000     0.171230000000     0.320890000000    -0.0319016  
C375     C      0.925960000000     0.165010000000     0.449580000000     0.0628126  
C376     C      0.908760000000     0.168050000000     0.508040000000    -0.0652033  
C377     C      0.947770000000     0.189980000000     0.441030000000    -0.0556854  
C378     C      0.898710000000     0.153230000000     0.543260000000     0.118079   
C379     C      0.937250000000     0.141980000000     0.538360000000     0.00460471 
C380     C      0.914890000000     0.156530000000     0.386530000000    -0.0552794  
C381     C      0.270770000000     0.448460000000     0.391210000000    -0.0329222  
C382     C      0.283730000000     0.434950000000     0.580040000000    -0.0323398  
C383     C      0.230890000000     0.408890000000     0.618950000000    -0.00305699 
C384     C      0.282890000000     0.443520000000     0.618110000000     0.000102667
C385     C      0.270100000000     0.449710000000     0.505550000000    -0.053206   
C386     C      0.254420000000     0.404120000000     0.468120000000    -0.0525116  
C387     C      0.258620000000     0.426300000000     0.524320000000     0.0617716  
C388     C      0.234400000000     0.403540000000     0.579770000000    -0.0312798  
C389     C      0.266230000000     0.427600000000     0.449390000000     0.0612092  
C390     C      0.296910000000     0.426980000000     0.404000000000    -0.0637292  
C391     C      0.274560000000     0.450560000000     0.468780000000    -0.0547936  
C392     C      0.297970000000     0.420420000000     0.364600000000     0.122331   
C393     C      0.270150000000     0.443480000000     0.351190000000    -0.000796925
C394     C      0.251210000000     0.403430000000     0.505220000000    -0.0546356  
C395     C      0.313630000000     0.460850000000     0.080610000000    -0.0333298  
C396     C      0.254720000000     0.409430000000     0.902770000000    -0.032623   
C397     C      0.275320000000     0.457450000000     0.862940000000    -0.00177542 
C398     C      0.239910000000     0.409950000000     0.868310000000    -0.00129626 
C399     C      0.263600000000     0.435900000000     0.985220000000    -0.0518723  
C400     C      0.313300000000     0.434730000000     0.995010000000    -0.0532698  
C401     C      0.278110000000     0.434490000000     0.955410000000     0.0614763  
C402     C      0.288830000000     0.455330000000     0.897370000000    -0.031746   
C403     C      0.299350000000     0.437090000000     0.024770000000     0.0630668  
C404     C      0.295750000000     0.414500000000     0.079640000000    -0.0632414  
C405     C      0.273830000000     0.436820000000     0.019660000000    -0.0556265  
C406     C      0.310860000000     0.415590000000     0.114740000000     0.121709   
C407     C      0.329940000000     0.463890000000     0.114890000000     0.000318536
C408     C      0.302660000000     0.433120000000     0.960620000000    -0.0547088  
C409     C      0.189060000000     0.348700000000     0.200050000000    -0.0331579  
C410     C      0.038690000000     0.286730000000     0.161730000000    -0.0321078  
C411     C      0.031820000000     0.236650000000     0.142280000000    -0.00147331 
C412     C      0.012250000000     0.266910000000     0.142030000000    -0.00164845 
C413     C      0.111040000000     0.316170000000     0.141760000000    -0.0528179  
C414     C      0.120000000000     0.327600000000     0.214640000000    -0.05314    
C415     C      0.088850000000     0.303210000000     0.165750000000     0.0619659  
C416     C      0.057270000000     0.257270000000     0.162470000000    -0.0317928  
C417     C      0.142240000000     0.340510000000     0.190640000000     0.0618336  
C418     C      0.181290000000     0.384240000000     0.188070000000    -0.0631629  
C419     C      0.137560000000     0.334520000000     0.153960000000    -0.0550763  
C420     C      0.208980000000     0.404010000000     0.205970000000     0.121288   
C421     C      0.215490000000     0.365250000000     0.221610000000     0.0019062  
C422     C      0.093530000000     0.308950000000     0.202450000000    -0.0556883  
C423     C      0.408250000000     0.482260000000     0.313140000000    -0.0373344  
C424     C      0.475260000000     0.567440000000     0.466510000000    -0.0320948  
C425     C      0.464170000000     0.526500000000     0.517230000000    -0.000639576
C426     C      0.480830000000     0.572950000000     0.506610000000    -0.00205544 
C427     C      0.466020000000     0.537840000000     0.397380000000    -0.0545734  
C428     C      0.409680000000     0.515690000000     0.377790000000    -0.054279   
C429     C      0.445910000000     0.534510000000     0.423260000000     0.061753   
C430     C      0.459300000000     0.521330000000     0.477150000000    -0.0318313  
C431     C      0.429860000000     0.519480000000     0.351780000000     0.0643012  
C432     C      0.406310000000     0.521560000000     0.297760000000    -0.0664787  
C433     C      0.458010000000     0.530600000000     0.361930000000    -0.0533461  
C434     C      0.400980000000     0.512930000000     0.258630000000     0.124246   
C435     C      0.402460000000     0.473460000000     0.274070000000     0.00125986 
C436     C      0.417770000000     0.523380000000     0.413090000000    -0.0509321  
C437     C      0.602970000000     0.986160000000     0.810210000000    -0.033621   
C438     C      0.569800000000     0.984730000000     0.628780000000    -0.0322255  
C439     C      0.604060000000     0.032020000000     0.588100000000    -0.00166404 
C440     C      0.559470000000     0.987400000000     0.591980000000    -0.000683853
C441     C      0.610320000000     0.004920000000     0.697530000000    -0.0549818  
C442     C      0.572780000000     0.008960000000     0.743610000000    -0.0529844  
C443     C      0.589000000000     0.008790000000     0.683340000000     0.0619261  
C444     C      0.611120000000     0.026860000000     0.625650000000    -0.0318076  
C445     C      0.594340000000     0.005750000000     0.757950000000     0.0616435  
C446     C      0.618400000000     0.031460000000     0.809490000000    -0.0639684  
C447     C      0.613410000000     0.004080000000     0.734530000000    -0.0547389  
C448     C      0.614990000000     0.033030000000     0.849890000000     0.122067   
C449     C      0.599100000000     0.983930000000     0.850810000000     0.00282915 
C450     C      0.570210000000     0.010580000000     0.706730000000    -0.0531097  
C451     C      0.552090000000     0.982110000000     0.127800000000    -0.0331767  
C452     C      0.577280000000     0.033690000000     0.310900000000    -0.0314931  
C453     C      0.527110000000     0.998760000000     0.350890000000    -0.000897293
C454     C      0.571580000000     0.041680000000     0.347320000000    -0.00173497 
C455     C      0.543350000000     0.016930000000     0.228780000000    -0.052289   
C456     C      0.577310000000     0.995600000000     0.213860000000    -0.0525132  
C457     C      0.555090000000     0.010070000000     0.257000000000     0.0626057  
C458     C      0.534180000000     0.991940000000     0.314380000000    -0.0322233  
C459     C      0.566420000000     0.003320000000     0.185680000000     0.0630888  
C460     C      0.589300000000     0.027030000000     0.131660000000    -0.06277    
C461     C      0.548780000000     0.013460000000     0.193320000000    -0.0549172  
C462     C      0.603120000000     0.024390000000     0.097870000000     0.114046   
C463     C      0.564240000000     0.978190000000     0.092960000000    -0.00114033 
C464     C      0.571620000000     0.998760000000     0.249240000000    -0.054982   
C465     C      0.708970000000     0.029450000000     0.019640000000    -0.0324315  
C466     C      0.815320000000     0.116140000000     0.145100000000    -0.0321004  
C467     C      0.851790000000     0.096200000000     0.166490000000     0.000655008
C468     C      0.833110000000     0.125750000000     0.178950000000    -0.000135481
C469     C      0.796380000000     0.088830000000     0.072920000000    -0.0551739  
C470     C      0.741090000000     0.051410000000     0.088250000000    -0.0541202  
C471     C      0.789080000000     0.078800000000     0.107800000000     0.0637262  
C472     C      0.833530000000     0.086740000000     0.132780000000    -0.0343714  
C473     C      0.748070000000     0.062130000000     0.053630000000     0.061663   
C474     C      0.710000000000     0.068840000000     0.038320000000    -0.0605333  
C475     C      0.775980000000     0.080510000000     0.046140000000    -0.0511076  
C476     C      0.688240000000     0.065700000000     0.010010000000     0.113764   
C477     C      0.689160000000     0.025700000000     0.988830000000    -0.00076002 
C478     C      0.761470000000     0.059680000000     0.114930000000    -0.0530454  
C479     C      0.242240000000     0.817570000000     0.670740000000    -0.0356395  
C480     C      0.226270000000     0.860640000000     0.492490000000    -0.0313308  
C481     C      0.274690000000     0.865390000000     0.454310000000    -0.001988   
C482     C      0.234590000000     0.874280000000     0.456240000000    -0.00292128 
C483     C      0.261490000000     0.869830000000     0.575320000000    -0.0528887  
C484     C      0.217300000000     0.820470000000     0.591160000000    -0.0526349  
C485     C      0.245130000000     0.853660000000     0.547430000000     0.0618582  
C486     C      0.264900000000     0.851720000000     0.490500000000    -0.0319603  
C487     C      0.232990000000     0.836970000000     0.619120000000     0.0616159  
C488     C      0.223680000000     0.846730000000     0.679570000000    -0.0660695  
C489     C      0.255770000000     0.861500000000     0.610880000000    -0.05498    
C490     C      0.208180000000     0.832460000000     0.713340000000     0.117974   
C491     C      0.228540000000     0.802680000000     0.705330000000     0.00392306 
C492     C      0.223460000000     0.828520000000     0.555630000000    -0.0553431  
C493     C      0.237540000000     0.821840000000     0.173920000000    -0.0330638  
C494     C      0.211480000000     0.794500000000     0.992330000000    -0.032227   
C495     C      0.185620000000     0.819010000000     0.952170000000    -0.00245616 
C496     C      0.201220000000     0.785590000000     0.954150000000    -0.0014725  
C497     C      0.223000000000     0.828580000000     0.061650000000    -0.0548828  
C498     C      0.183560000000     0.791380000000     0.107760000000    -0.0527275  
C499     C      0.198880000000     0.807230000000     0.047400000000     0.0616288  
C500     C      0.196090000000     0.826120000000     0.990690000000    -0.0318594  
C501     C      0.207240000000     0.812810000000     0.122140000000     0.0614418  
C502     C      0.202590000000     0.834770000000     0.173320000000    -0.0627624  
C503     C      0.226850000000     0.831620000000     0.098660000000    -0.0545751  
C504     C      0.199970000000     0.833880000000     0.214270000000     0.119915   
C505     C      0.236870000000     0.819340000000     0.214590000000    -0.000148108
C506     C      0.179380000000     0.788660000000     0.070810000000    -0.0529635  
C507     C      0.469060000000     0.974060000000     0.941320000000    -0.0333625  
C508     C      0.339550000000     0.867990000000     0.866720000000    -0.032055   
C509     C      0.300950000000     0.887940000000     0.859780000000    -0.00134858 
C510     C      0.308180000000     0.848740000000     0.865990000000    -0.000802711
C511     C      0.395060000000     0.917780000000     0.866560000000    -0.0558334  
C512     C      0.408680000000     0.929360000000     0.938730000000    -0.0552317  
C513     C      0.373600000000     0.908930000000     0.892290000000     0.0618467  
C514     C      0.332920000000     0.904790000000     0.860880000000    -0.0317472  
C515     C      0.430240000000     0.937110000000     0.913260000000     0.0612731  
C516     C      0.464700000000     0.932160000000     0.946500000000    -0.0640894  
C517     C      0.423150000000     0.931620000000     0.877110000000    -0.0529422  
C518     C      0.496240000000     0.943170000000     0.952410000000     0.122051   
C519     C      0.500960000000     0.988420000000     0.944100000000     0.0024048  
C520     C      0.380660000000     0.915300000000     0.928220000000    -0.0529804  
C521     C      0.974140000000     0.701840000000     0.719320000000    -0.035202   
C522     C      0.901510000000     0.662430000000     0.891990000000    -0.0320783  
C523     C      0.940730000000     0.706020000000     0.935980000000     6.79396e-05
C524     C      0.900320000000     0.658900000000     0.932460000000    -0.000576315
C525     C      0.955960000000     0.676940000000     0.830520000000    -0.0513925  
C526     C      0.922430000000     0.684790000000     0.781780000000    -0.0529461  
C527     C      0.934520000000     0.681000000000     0.843090000000     0.0620006  
C528     C      0.939000000000     0.706620000000     0.895280000000    -0.032284   
C529     C      0.943530000000     0.680250000000     0.769250000000     0.064425   
C530     C      0.942610000000     0.654600000000     0.718090000000    -0.0631328  
C531     C      0.960650000000     0.676770000000     0.793920000000    -0.056652   
C532     C      0.955660000000     0.656040000000     0.680890000000     0.121919   
C533     C      0.972490000000     0.704500000000     0.679060000000     0.0107301  
C534     C      0.918040000000     0.685420000000     0.818430000000    -0.0545081  
C535     C      0.882430000000     0.652060000000     0.216560000000    -0.0335153  
C536     C      0.935990000000     0.694160000000     0.397720000000    -0.0320154  
C537     C      0.918490000000     0.646730000000     0.438140000000    -0.00135803 
C538     C      0.932270000000     0.694460000000     0.438100000000    -0.000538101
C539     C      0.890620000000     0.667730000000     0.329900000000    -0.053134   
C540     C      0.933380000000     0.671300000000     0.285910000000    -0.0523414  
C541     C      0.914200000000     0.668500000000     0.345300000000     0.0624274  
C542     C      0.922440000000     0.648920000000     0.397610000000    -0.0317941  
C543     C      0.909690000000     0.670310000000     0.270480000000     0.0616214  
C544     C      0.913360000000     0.697800000000     0.221330000000    -0.0641801  
C545     C      0.888420000000     0.668890000000     0.292870000000    -0.0550116  
C546     C      0.918580000000     0.701540000000     0.180960000000     0.122846   
C547     C      0.885190000000     0.651840000000     0.176000000000     0.00254585 
C548     C      0.935840000000     0.670660000000     0.323000000000    -0.0554125  
C549     C      0.827350000000     0.656750000000     0.585470000000    -0.0339317  
C550     C      0.674890000000     0.572700000000     0.568520000000    -0.0319628  
C551     C      0.660330000000     0.613150000000     0.576640000000    -0.00154045 
C552     C      0.644820000000     0.565300000000     0.578460000000    -0.00169671 
C553     C      0.739520000000     0.610720000000     0.610560000000    -0.0525949  
C554     C      0.764650000000     0.615050000000     0.544100000000    -0.0528241  
C555     C      0.723400000000     0.605040000000     0.579450000000     0.0623771  
C556     C      0.689490000000     0.618300000000     0.566450000000    -0.0317182  
C557     C      0.780880000000     0.621090000000     0.575200000000     0.0617488  
C558     C      0.818750000000     0.613300000000     0.589950000000    -0.0637743  
C559     C      0.768010000000     0.618680000000     0.608590000000    -0.0546682  
C560     C      0.849240000000     0.621150000000     0.581030000000     0.121547   
C561     C      0.857680000000     0.667830000000     0.573730000000     0.00312539 
C562     C      0.736130000000     0.607100000000     0.546080000000    -0.0557512  
C563     C      0.047970000000     0.692130000000     0.595900000000    -0.0373342  
C564     C      0.111090000000     0.771320000000     0.755560000000    -0.0318983  
C565     C      0.123440000000     0.738670000000     0.800990000000    -0.00131268 
C566     C      0.116110000000     0.776380000000     0.795710000000    -0.00119756 
C567     C      0.111840000000     0.744880000000     0.683690000000    -0.0532231  
C568     C      0.054910000000     0.719620000000     0.666410000000    -0.0531462  
C569     C      0.091740000000     0.737620000000     0.711090000000     0.0622416  
C570     C      0.117860000000     0.733660000000     0.760880000000    -0.0320053  
C571     C      0.074890000000     0.725880000000     0.639150000000     0.0659818  
C572     C      0.056290000000     0.736850000000     0.587790000000    -0.0666865  
C573     C      0.103380000000     0.738740000000     0.648110000000    -0.0526968  
C574     C      0.048920000000     0.730790000000     0.548220000000     0.125126   
C575     C      0.039520000000     0.686520000000     0.556370000000    -5.7366e-05 
C576     C      0.063300000000     0.725190000000     0.702030000000    -0.0462127  
H1       H      0.839850000000     0.037560000000     0.774250000000     0.042467   
H2       H      0.742250000000     0.946670000000     0.778720000000     0.0362611  
H3       H      0.817000000000     0.946460000000     0.753730000000     0.0561992  
H4       H      0.838190000000     0.085550000000     0.660760000000     0.04003    
H5       H      0.744030000000     0.915430000000     0.817990000000     0.0361028  
H6       H      0.873940000000     0.040950000000     0.699610000000     0.0376449  
H7       H      0.810920000000     0.061340000000     0.711770000000     0.0365919  
H8       H      0.909170000000     0.086890000000     0.685190000000     0.0413123  
H9       H      0.814510000000     0.994510000000     0.801890000000     0.0469937  
H10      H      0.716840000000     0.898840000000     0.785770000000     0.0416125  
H11      H      0.801290000000     0.004720000000     0.673010000000     0.0468618  
H12      H      0.743550000000     0.929880000000     0.739380000000     0.0414779  
H13      H      0.846010000000     0.107640000000     0.697200000000     0.04099    
H14      H      0.796330000000     0.911580000000     0.794730000000     0.0278256  
H15      H      0.877530000000     0.063670000000     0.733810000000     0.03878    
H16      H      0.841000000000     0.075350000000     0.740940000000     0.0387683  
H17      H      0.775450000000     0.962010000000     0.700560000000     0.0438318  
H18      H      0.787870000000     0.932070000000     0.723370000000     0.0640512  
H19      H      0.882050000000     0.071290000000     0.652460000000     0.0376387  
H20      H      0.074870000000     0.381940000000     0.654700000000     0.0470054  
H21      H      0.991450000000     0.300600000000     0.623870000000     0.0365741  
H22      H      0.058630000000     0.285400000000     0.623250000000     0.0557128  
H23      H      0.061400000000     0.427260000000     0.545940000000     0.0378277  
H24      H      0.976310000000     0.265050000000     0.663680000000     0.0370248  
H25      H      0.124390000000     0.413500000000     0.594410000000     0.0411585  
H26      H      0.038890000000     0.392430000000     0.587310000000     0.0364418  
H27      H      0.137390000000     0.461100000000     0.593900000000     0.0408749  
H28      H      0.051180000000     0.336120000000     0.671740000000     0.0483961  
H29      H      0.957340000000     0.253080000000     0.622800000000     0.0440018  
H30      H      0.065960000000     0.360420000000     0.543620000000     0.0462996  
H31      H      0.995900000000     0.283490000000     0.587170000000     0.0414026  
H32      H      0.052610000000     0.439280000000     0.584720000000     0.0439111  
H33      H      0.026500000000     0.250090000000     0.657980000000     0.0265985  
H34      H      0.108470000000     0.422970000000     0.628800000000     0.0440835  
H35      H      0.060020000000     0.411480000000     0.624320000000     0.0400381  
H36      H      0.042050000000     0.314810000000     0.560420000000     0.0432417  
H37      H      0.035500000000     0.276970000000     0.585600000000     0.0611781  
H38      H      0.125360000000     0.444090000000     0.552530000000     0.0376671  
H39      H      0.157910000000     0.683500000000     0.375330000000     0.042654   
H40      H      0.188160000000     0.644980000000     0.477940000000     0.0358877  
H41      H      0.103500000000     0.625990000000     0.485990000000     0.0546737  
H42      H      0.233450000000     0.776660000000     0.397340000000     0.0369571  
H43      H      0.166280000000     0.599790000000     0.480870000000     0.0361564  
H44      H      0.141160000000     0.728390000000     0.404710000000     0.0380411  
H45      H      0.219830000000     0.732400000000     0.396960000000     0.0354985  
H46      H      0.158350000000     0.765100000000     0.358430000000     0.0403941  
H47      H      0.142930000000     0.642230000000     0.406060000000     0.0471227  
H48      H      0.178290000000     0.610390000000     0.525260000000     0.0392277  
H49      H      0.179030000000     0.722890000000     0.476730000000     0.0457828  
H50      H      0.173830000000     0.647750000000     0.519780000000     0.0397089  
H51      H      0.234790000000     0.768970000000     0.351530000000     0.0379101  
H52      H      0.096480000000     0.584320000000     0.491830000000     0.0285672  
H53      H      0.153300000000     0.722880000000     0.362810000000     0.0382932  
H54      H      0.197680000000     0.725390000000     0.358350000000     0.037511   
H55      H      0.163650000000     0.681720000000     0.507470000000     0.042895   
H56      H      0.126820000000     0.638730000000     0.523460000000     0.0613312  
H57      H      0.171560000000     0.773600000000     0.402890000000     0.0399704  
H58      H      0.613190000000     0.633650000000     0.919510000000     0.0428241  
H59      H      0.612570000000     0.707920000000     0.841830000000     0.0428299  
H60      H      0.688190000000     0.705340000000     0.843430000000     0.0602567  
H61      H      0.594980000000     0.646130000000     0.047280000000     0.0359121  
H62      H      0.631860000000     0.713570000000     0.781450000000     0.0368224  
H63      H      0.665170000000     0.662610000000     0.988540000000     0.0373528  
H64      H      0.581890000000     0.649370000000     0.985860000000     0.0373975  
H65      H      0.652220000000     0.629440000000     0.036260000000     0.0410875  
H66      H      0.623870000000     0.654240000000     0.860500000000     0.0480674  
H67      H      0.631810000000     0.742290000000     0.795080000000     0.0461248  
H68      H      0.648890000000     0.708520000000     0.969550000000     0.0472149  
H69      H      0.643420000000     0.736750000000     0.856970000000     0.0590972  
H70      H      0.567350000000     0.615060000000     0.032830000000     0.0410241  
H71      H      0.674260000000     0.710700000000     0.783050000000     0.0261282  
H72      H      0.638180000000     0.631120000000     0.973810000000     0.0405127  
H73      H      0.586810000000     0.622970000000     0.972000000000     0.039732   
H74      H      0.660410000000     0.729150000000     0.910540000000     0.0533518  
H75      H      0.690580000000     0.735330000000     0.857450000000     0.0630011  
H76      H      0.645250000000     0.654730000000     0.048760000000     0.0351326  
H77      H      0.322430000000     0.022640000000     0.173780000000     0.0420965  
H78      H      0.334420000000     0.967960000000     0.271280000000     0.0362266  
H79      H      0.257580000000     0.967230000000     0.280190000000     0.0573661  
H80      H      0.402640000000     0.112810000000     0.210690000000     0.038739   
H81      H      0.302520000000     0.923270000000     0.270180000000     0.0400853  
H82      H      0.309870000000     0.067720000000     0.201950000000     0.0372769  
H83      H      0.386890000000     0.068310000000     0.205850000000     0.0356824  
H84      H      0.333470000000     0.107080000000     0.159450000000     0.0382632  
H85      H      0.299540000000     0.979200000000     0.200470000000     0.0488227  
H86      H      0.315380000000     0.929910000000     0.314920000000     0.038952   
H87      H      0.344000000000     0.056410000000     0.278860000000     0.0466427  
H88      H      0.322420000000     0.972670000000     0.313790000000     0.0401724  
H89      H      0.407900000000     0.108130000000     0.164860000000     0.036772   
H90      H      0.239310000000     0.922850000000     0.283810000000     0.0408029  
H91      H      0.325730000000     0.064130000000     0.161980000000     0.03696    
H92      H      0.369090000000     0.064820000000     0.164130000000     0.0369009  
H93      H      0.321770000000     0.013200000000     0.305500000000     0.0436255  
H94      H      0.280330000000     0.974420000000     0.317960000000     0.0615655  
H95      H      0.340860000000     0.112430000000     0.206060000000     0.038419   
H96      H      0.528330000000     0.402360000000     0.142290000000     0.0506294  
H97      H      0.520630000000     0.314540000000     0.121410000000     0.036353   
H98      H      0.444370000000     0.315340000000     0.120600000000     0.0558887  
H99      H      0.583950000000     0.469940000000     0.082280000000     0.0423662  
H100     H      0.488600000000     0.270610000000     0.110780000000     0.0369413  
H101     H      0.492440000000     0.415490000000     0.072960000000     0.0403122  
H102     H      0.574960000000     0.427840000000     0.068630000000     0.0363917  
H103     H      0.509560000000     0.458410000000     0.040440000000     0.0427298  
H104     H      0.506520000000     0.356840000000     0.159750000000     0.044342   
H105     H      0.496050000000     0.272410000000     0.157400000000     0.0391978  
H106     H      0.514770000000     0.380200000000     0.031370000000     0.0425241  
H107     H      0.504140000000     0.315360000000     0.162480000000     0.0404673  
H108     H      0.589720000000     0.470530000000     0.035280000000     0.0377294  
H109     H      0.425310000000     0.270910000000     0.115440000000     0.0271222  
H110     H      0.509690000000     0.418910000000     0.030820000000     0.0372874  
H111     H      0.555950000000     0.425540000000     0.028390000000     0.0369773  
H112     H      0.492450000000     0.334450000000     0.048820000000     0.0469578  
H113     H      0.462380000000     0.317800000000     0.161620000000     0.0627906  
H114     H      0.518830000000     0.459920000000     0.086470000000     0.0570783  
H115     H      0.708570000000     0.825350000000     0.489570000000     0.0409947  
H116     H      0.669620000000     0.787270000000     0.614790000000     0.0368427  
H117     H      0.756700000000     0.841580000000     0.613740000000     0.0591661  
H118     H      0.710540000000     0.756410000000     0.412580000000     0.0349624  
H119     H      0.677790000000     0.819590000000     0.659880000000     0.0384792  
H120     H      0.767670000000     0.823710000000     0.465740000000     0.0369053  
H121     H      0.683550000000     0.762300000000     0.459380000000     0.034567   
H122     H      0.771050000000     0.826310000000     0.399270000000     0.0398625  
H123     H      0.703360000000     0.835060000000     0.551750000000     0.0459609  
H124     H      0.669090000000     0.789730000000     0.682050000000     0.0370369  
H125     H      0.732380000000     0.770370000000     0.525530000000     0.0458545  
H126     H      0.693320000000     0.778830000000     0.636200000000     0.0429609  
H127     H      0.685700000000     0.763910000000     0.392790000000     0.0386574  
H128     H      0.732180000000     0.854260000000     0.656040000000     0.0277145  
H129     H      0.742060000000     0.830210000000     0.445580000000     0.0390392  
H130     H      0.691650000000     0.793420000000     0.441820000000     0.0381842  
H131     H      0.726600000000     0.779790000000     0.587930000000     0.0450504  
H132     H      0.744660000000     0.811190000000     0.636750000000     0.0621123  
H133     H      0.764150000000     0.795650000000     0.416620000000     0.0354748  
H134     H      0.720000000000     0.873000000000     0.072480000000     0.0461389  
H135     H      0.761360000000     0.839810000000     0.963450000000     0.0371512  
H136     H      0.675870000000     0.818640000000     0.967930000000     0.0550483  
H137     H      0.685370000000     0.834700000000     0.177180000000     0.0355028  
H138     H      0.754690000000     0.852880000000     0.906340000000     0.0377917  
H139     H      0.762810000000     0.863860000000     0.123000000000     0.0356103  
H140     H      0.675570000000     0.810240000000     0.122390000000     0.0361921  
H141     H      0.764950000000     0.856810000000     0.188540000000     0.0383709  
H142     H      0.721110000000     0.870810000000     0.006900000000     0.0469762  
H143     H      0.753790000000     0.822900000000     0.899560000000     0.0446307  
H144     H      0.720430000000     0.801140000000     0.079890000000     0.0407299  
H145     H      0.734340000000     0.806740000000     0.956760000000     0.0393376  
H146     H      0.676870000000     0.802330000000     0.187860000000     0.0396085  
H147     H      0.686820000000     0.835120000000     0.909260000000     0.0271919  
H148     H      0.750700000000     0.830530000000     0.134140000000     0.038001   
H149     H      0.699560000000     0.799090000000     0.134060000000     0.037685   
H150     H      0.719690000000     0.798090000000     0.014930000000     0.0416355  
H151     H      0.686280000000     0.794840000000     0.960970000000     0.0599676  
H152     H      0.743620000000     0.870820000000     0.177430000000     0.0364676  
H153     H      0.777830000000     0.761930000000     0.145670000000     0.0407747  
H154     H      0.864310000000     0.762050000000     0.099860000000     0.041806   
H155     H      0.791670000000     0.689180000000     0.082170000000     0.0585764  
H156     H      0.792890000000     0.771680000000     0.280350000000     0.0357571  
H157     H      0.863980000000     0.747630000000     0.038550000000     0.0364401  
H158     H      0.737350000000     0.717860000000     0.207630000000     0.0354827  
H159     H      0.818680000000     0.782050000000     0.224330000000     0.0371271  
H160     H      0.716520000000     0.738070000000     0.246520000000     0.0389327  
H161     H      0.798060000000     0.752140000000     0.093760000000     0.0462314  
H162     H      0.893020000000     0.749550000000     0.062870000000     0.0471771  
H163     H      0.805100000000     0.720380000000     0.213670000000     0.046933   
H164     H      0.864370000000     0.734010000000     0.117800000000     0.0573558  
H165     H      0.799410000000     0.802530000000     0.264350000000     0.040096   
H166     H      0.821120000000     0.705650000000     0.028690000000     0.0256289  
H167     H      0.744430000000     0.749110000000     0.191880000000     0.037904   
H168     H      0.792970000000     0.787490000000     0.202120000000     0.0391764  
H169     H      0.825840000000     0.711040000000     0.161810000000     0.0493466  
H170     H      0.820070000000     0.689280000000     0.106530000000     0.0617808  
H171     H      0.740600000000     0.731120000000     0.269660000000     0.0353037  
H172     H      0.653280000000     0.916610000000     0.317440000000     0.0458371  
H173     H      0.663010000000     0.974730000000     0.422170000000     0.0356212  
H174     H      0.582780000000     0.908510000000     0.412300000000     0.0559074  
H175     H      0.714550000000     0.893350000000     0.302160000000     0.0363922  
H176     H      0.635470000000     0.978300000000     0.469180000000     0.0354738  
H177     H      0.630780000000     0.851970000000     0.343850000000     0.0360366  
H178     H      0.712570000000     0.916430000000     0.353700000000     0.0351214  
H179     H      0.651100000000     0.823760000000     0.328070000000     0.0387821  
H180     H      0.633350000000     0.939870000000     0.348290000000     0.0424018  
H181     H      0.641360000000     0.001760000000     0.435520000000     0.0409571  
H182     H      0.662640000000     0.886740000000     0.418170000000     0.0410969  
H183     H      0.639300000000     0.973540000000     0.388030000000     0.0397011  
H184     H      0.733100000000     0.888370000000     0.337830000000     0.0384976  
H185     H      0.575440000000     0.931370000000     0.459190000000     0.0254375  
H186     H      0.654450000000     0.851710000000     0.376940000000     0.0372591  
H187     H      0.701600000000     0.888870000000     0.382610000000     0.0370926  
H188     H      0.642500000000     0.909960000000     0.449230000000     0.0456749  
H189     H      0.593930000000     0.934720000000     0.381060000000     0.060658   
H190     H      0.656740000000     0.847770000000     0.295270000000     0.0363356  
H191     H      0.095500000000     0.550200000000     0.838370000000     0.0417695  
H192     H      0.154770000000     0.555640000000     0.724510000000     0.0366154  
H193     H      0.066940000000     0.522850000000     0.709110000000     0.0550889  
H194     H      0.144180000000     0.518890000000     0.919510000000     0.0320776  
H195     H      0.148990000000     0.577990000000     0.674320000000     0.0370616  
H196     H      0.062650000000     0.483640000000     0.868990000000     0.0357986  
H197     H      0.146030000000     0.546250000000     0.871620000000     0.0352322  
H198     H      0.061430000000     0.483090000000     0.936400000000     0.0371803  
H199     H      0.098870000000     0.561870000000     0.775040000000     0.047519   
H200     H      0.161900000000     0.557640000000     0.657340000000     0.0389738  
H201     H      0.109130000000     0.487120000000     0.811450000000     0.0453811  
H202     H      0.136000000000     0.524860000000     0.702080000000     0.0404636  
H203     H      0.144300000000     0.546340000000     0.938810000000     0.0401999  
H204     H      0.091610000000     0.557870000000     0.665930000000     0.0297918  
H205     H      0.070160000000     0.513980000000     0.888660000000     0.0385715  
H206     H      0.118090000000     0.550000000000     0.890290000000     0.0378576  
H207     H      0.110230000000     0.497530000000     0.747870000000     0.0435774  
H208     H      0.083710000000     0.505520000000     0.692430000000     0.058015   
H209     H      0.084800000000     0.473680000000     0.917060000000     0.0356306  
H210     H      0.090250000000     0.518280000000     0.327690000000     0.0463202  
H211     H      0.076990000000     0.458870000000     0.218730000000     0.0356219  
H212     H      0.150430000000     0.532180000000     0.222230000000     0.0549087  
H213     H      0.080120000000     0.507590000000     0.426070000000     0.0406563  
H214     H      0.102370000000     0.460800000000     0.165750000000     0.0371347  
H215     H      0.156870000000     0.516950000000     0.377280000000     0.0362629  
H216     H      0.068190000000     0.477840000000     0.377980000000     0.0352331  
H217     H      0.155770000000     0.512620000000     0.445470000000     0.0385792  
H218     H      0.089760000000     0.514710000000     0.262770000000     0.0444629  
H219     H      0.072900000000     0.463940000000     0.153110000000     0.0399582  
H220     H      0.131420000000     0.473080000000     0.335670000000     0.0417279  
H221     H      0.075560000000     0.487470000000     0.206960000000     0.0421626  
H222     H      0.069180000000     0.476720000000     0.445890000000     0.0376161  
H223     H      0.155620000000     0.522480000000     0.163510000000     0.0300195  
H224     H      0.136820000000     0.484750000000     0.395370000000     0.036326   
H225     H      0.087050000000     0.463060000000     0.396280000000     0.0381404  
H226     H      0.133280000000     0.471590000000     0.270390000000     0.0476507  
H227     H      0.117120000000     0.529710000000     0.214300000000     0.0631501  
H228     H      0.148590000000     0.536340000000     0.427160000000     0.0368017  
H229     H      0.992000000000     0.605990000000     0.115020000000     0.0416988  
H230     H      0.008530000000     0.538920000000     0.045500000000     0.0362007  
H231     H      0.078590000000     0.594960000000     0.104300000000     0.058325   
H232     H      0.948930000000     0.627190000000     0.011110000000     0.035671   
H233     H      0.024260000000     0.515540000000     0.083290000000     0.0372332  
H234     H      0.024510000000     0.666180000000     0.072030000000     0.0363581  
H235     H      0.955190000000     0.594580000000     0.040470000000     0.0357662  
H236     H      0.992810000000     0.685180000000     0.077770000000     0.0396057  
H237     H      0.013110000000     0.578690000000     0.124030000000     0.0468894  
H238     H      0.031930000000     0.512280000000     0.037440000000     0.0365199  
H239     H      0.027200000000     0.624920000000     0.009050000000     0.0456435  
H240     H      0.041970000000     0.555880000000     0.023180000000     0.0392743  
H241     H      0.923460000000     0.613100000000     0.046040000000     0.0403395  
H242     H      0.064390000000     0.550460000000     0.121120000000     0.0293777  
H243     H      0.995730000000     0.648870000000     0.102530000000     0.0387726  
H244     H      0.955360000000     0.607410000000     0.084130000000     0.0381798  
H245     H      0.049500000000     0.598560000000     0.018830000000     0.0428375  
H246     H      0.084040000000     0.588620000000     0.058580000000     0.0586902  
H247     H      0.996960000000     0.676980000000     0.032930000000     0.0374056  
H248     H      0.469670000000     0.207960000000     0.939570000000     0.0454449  
H249     H      0.403540000000     0.153370000000     0.812100000000     0.0362986  
H250     H      0.454850000000     0.232930000000     0.836280000000     0.0571394  
H251     H      0.413710000000     0.215470000000     0.032570000000     0.0377261  
H252     H      0.432200000000     0.171320000000     0.760110000000     0.0339884  
H253     H      0.449540000000     0.170930000000     0.985920000000     0.0349483  
H254     H      0.391000000000     0.197200000000     0.977630000000     0.0371328  
H255     H      0.440780000000     0.165020000000     0.052210000000     0.0367089  
H256     H      0.473410000000     0.208720000000     0.874330000000     0.0468059  
H257     H      0.397780000000     0.165020000000     0.749140000000     0.0429795  
H258     H      0.379620000000     0.162320000000     0.930720000000     0.0417737  
H259     H      0.389770000000     0.175180000000     0.808530000000     0.0449365  
H260     H      0.380510000000     0.188220000000     0.043670000000     0.0414793  
H261     H      0.469450000000     0.228340000000     0.777620000000     0.026808   
H262     H      0.413290000000     0.150070000000     0.997240000000     0.0392355  
H263     H      0.379990000000     0.164600000000     0.991980000000     0.0375428  
H264     H      0.383070000000     0.165480000000     0.866750000000     0.0431591  
H265     H      0.418910000000     0.220120000000     0.823170000000     0.0669815  
H266     H      0.458380000000     0.197960000000     0.037350000000     0.0385929  
H267     H      0.422020000000     0.250790000000     0.358050000000     0.0448678  
H268     H      0.374880000000     0.215440000000     0.487740000000     0.0372268  
H269     H      0.463270000000     0.255420000000     0.478130000000     0.0585786  
H270     H      0.374750000000     0.170710000000     0.283330000000     0.0363195  
H271     H      0.394720000000     0.248500000000     0.533840000000     0.0362809  
H272     H      0.454840000000     0.213460000000     0.334830000000     0.0370904  
H273     H      0.371180000000     0.198260000000     0.327270000000     0.0379494  
H274     H      0.457220000000     0.211220000000     0.267960000000     0.0402222  
H275     H      0.423910000000     0.264090000000     0.420490000000     0.0478874  
H276     H      0.378320000000     0.217100000000     0.553830000000     0.0417232  
H277     H      0.407340000000     0.176270000000     0.393110000000     0.046225   
H278     H      0.393730000000     0.200130000000     0.504650000000     0.0409407  
H279     H      0.373460000000     0.196440000000     0.260390000000     0.04588    
H280     H      0.452000000000     0.273740000000     0.529040000000     0.0260008  
H281     H      0.447380000000     0.235840000000     0.311650000000     0.042137   
H282     H      0.399120000000     0.227060000000     0.307100000000     0.0436908  
H283     H      0.410770000000     0.189980000000     0.455360000000     0.0427365  
H284     H      0.446130000000     0.223570000000     0.497710000000     0.0604365  
H285     H      0.433360000000     0.181090000000     0.288940000000     0.0369293  
H286     H      0.476240000000     0.136890000000     0.515900000000     0.0475297  
H287     H      0.477150000000     0.052450000000     0.531110000000     0.0358925  
H288     H      0.556330000000     0.119250000000     0.517170000000     0.0550702  
H289     H      0.426790000000     0.153200000000     0.582200000000     0.0398063  
H290     H      0.506590000000     0.034430000000     0.533740000000     0.0366084  
H291     H      0.516450000000     0.182030000000     0.589360000000     0.0393908  
H292     H      0.434390000000     0.117430000000     0.589090000000     0.0357416  
H293     H      0.499370000000     0.205840000000     0.629470000000     0.0455855  
H294     H      0.493410000000     0.109190000000     0.491980000000     0.0435461  
H295     H      0.493090000000     0.028280000000     0.489310000000     0.0393298  
H296     H      0.497430000000     0.125110000000     0.622440000000     0.0421482  
H297     H      0.489070000000     0.066210000000     0.487470000000     0.0403134  
H298     H      0.418150000000     0.142330000000     0.627440000000     0.0386062  
H299     H      0.571610000000     0.089350000000     0.516580000000     0.0270302  
H300     H      0.500060000000     0.166000000000     0.630530000000     0.0379294  
H301     H      0.453320000000     0.129490000000     0.630390000000     0.0376473  
H302     H      0.515500000000     0.097960000000     0.598410000000     0.0463394  
H303     H      0.532710000000     0.104930000000     0.480310000000     0.0619774  
H304     H      0.488230000000     0.201720000000     0.583880000000     0.0502803  
H305     H      0.155660000000     0.484930000000     0.905500000000     0.041877   
H306     H      0.234400000000     0.506410000000     0.811130000000     0.0351814  
H307     H      0.157380000000     0.438090000000     0.789760000000     0.0572569  
H308     H      0.191550000000     0.472590000000     0.023500000000     0.0377267  
H309     H      0.223800000000     0.502110000000     0.747030000000     0.034535   
H310     H      0.132230000000     0.426100000000     0.951320000000     0.0357657  
H311     H      0.208870000000     0.496150000000     0.967180000000     0.0362371  
H312     H      0.113990000000     0.431940000000     0.009820000000     0.0395433  
H313     H      0.166490000000     0.489510000000     0.841480000000     0.0456484  
H314     H      0.255160000000     0.500570000000     0.754480000000     0.03956    
H315     H      0.198810000000     0.441860000000     0.918710000000     0.0459511  
H316     H      0.236580000000     0.477290000000     0.811080000000     0.0388001  
H317     H      0.191810000000     0.502770000000     0.026020000000     0.0428044  
H318     H      0.179900000000     0.464540000000     0.736660000000     0.0222343  
H319     H      0.129960000000     0.455200000000     0.952480000000     0.0393728  
H320     H      0.177970000000     0.499090000000     0.962520000000     0.0403174  
H321     H      0.209100000000     0.445970000000     0.854510000000     0.0437781  
H322     H      0.186710000000     0.432980000000     0.796590000000     0.062041   
H323     H      0.146120000000     0.431210000000     0.014320000000     0.0364076  
H324     H      0.351340000000     0.340170000000     0.784630000000     0.0467689  
H325     H      0.417110000000     0.329580000000     0.700620000000     0.037784   
H326     H      0.335200000000     0.265270000000     0.705510000000     0.0550374  
H327     H      0.337280000000     0.405330000000     0.777350000000     0.0361976  
H328     H      0.420300000000     0.300680000000     0.660380000000     0.0386443  
H329     H      0.288240000000     0.327030000000     0.744000000000     0.0370482  
H330     H      0.365620000000     0.397100000000     0.735980000000     0.0355101  
H331     H      0.262410000000     0.351470000000     0.745210000000     0.0409319  
H332     H      0.371430000000     0.313420000000     0.766460000000     0.0451369  
H333     H      0.436300000000     0.298650000000     0.700810000000     0.0515976  
H334     H      0.334790000000     0.348680000000     0.674370000000     0.0417837  
H335     H      0.406540000000     0.307270000000     0.737470000000     0.0459042  
H336     H      0.340280000000     0.422320000000     0.736520000000     0.0388391  
H337     H      0.355140000000     0.247310000000     0.668470000000     0.026301   
H338     H      0.294940000000     0.347440000000     0.705450000000     0.0391052  
H339     H      0.340160000000     0.388270000000     0.700680000000     0.0379031  
H340     H      0.354830000000     0.321780000000     0.656090000000     0.0466955  
H341     H      0.359630000000     0.272200000000     0.741320000000     0.0643078  
H342     H      0.284850000000     0.357540000000     0.783040000000     0.036243   
H343     H      0.593850000000     0.540410000000     0.812080000000     0.0416107  
H344     H      0.528490000000     0.534410000000     0.723410000000     0.03664    
H345     H      0.599250000000     0.605480000000     0.698580000000     0.0490661  
H346     H      0.548200000000     0.557800000000     0.928020000000     0.037971   
H347     H      0.542060000000     0.535010000000     0.663440000000     0.0399019  
H348     H      0.623270000000     0.576130000000     0.867910000000     0.0366009  
H349     H      0.534700000000     0.539510000000     0.869800000000     0.0351411  
H350     H      0.621140000000     0.556030000000     0.929550000000     0.0393687  
H351     H      0.588510000000     0.546080000000     0.748480000000     0.046174   
H352     H      0.511940000000     0.538900000000     0.660840000000     0.0376044  
H353     H      0.559460000000     0.589460000000     0.837660000000     0.045143   
H354     H      0.522370000000     0.561100000000     0.717940000000     0.0561791  
H355     H      0.534680000000     0.523720000000     0.932290000000     0.0369585  
H356     H      0.578670000000     0.613800000000     0.651300000000     0.028291   
H357     H      0.602080000000     0.541480000000     0.871680000000     0.0370588  
H358     H      0.552310000000     0.521070000000     0.873890000000     0.0388066  
H359     H      0.551630000000     0.592980000000     0.774050000000     0.0494865  
H360     H      0.575050000000     0.611070000000     0.722670000000     0.0584495  
H361     H      0.615530000000     0.583010000000     0.928040000000     0.034069   
H362     H      0.555940000000     0.583560000000     0.318460000000     0.0450209  
H363     H      0.629470000000     0.576170000000     0.216340000000     0.0354215  
H364     H      0.541010000000     0.532830000000     0.220660000000     0.0558632  
H365     H      0.533720000000     0.537190000000     0.424050000000     0.0330443  
H366     H      0.619600000000     0.582480000000     0.157500000000     0.0350101  
H367     H      0.600930000000     0.604630000000     0.370740000000     0.0341699  
H368     H      0.550800000000     0.523050000000     0.375480000000     0.0361955  
H369     H      0.602910000000     0.606520000000     0.437880000000     0.0364303  
H370     H      0.562420000000     0.582260000000     0.253760000000     0.046931   
H371     H      0.626070000000     0.556190000000     0.153690000000     0.040162   
H372     H      0.601850000000     0.543410000000     0.335960000000     0.0411146  
H373     H      0.610990000000     0.541480000000     0.212180000000     0.0383558  
H374     H      0.554910000000     0.525250000000     0.443010000000     0.0390846  
H375     H      0.547470000000     0.548770000000     0.161950000000     0.0289336  
H376     H      0.614430000000     0.585470000000     0.390360000000     0.0382102  
H377     H      0.586060000000     0.539040000000     0.392970000000     0.0371662  
H378     H      0.606060000000     0.540050000000     0.272030000000     0.0415825  
H379     H      0.561750000000     0.517560000000     0.214720000000     0.0624462  
H380     H      0.568990000000     0.596470000000     0.419200000000     0.0361821  
H381     H      0.970460000000     0.217520000000     0.881770000000     0.0416857  
H382     H      0.904070000000     0.198330000000     0.988740000000     0.0359199  
H383     H      0.941320000000     0.151300000000     0.988000000000     0.0531378  
H384     H      0.899840000000     0.176600000000     0.775490000000     0.0396081  
H385     H      0.924780000000     0.208300000000     0.045250000000     0.0371758  
H386     H      0.965170000000     0.170810000000     0.837260000000     0.0366185  
H387     H      0.909020000000     0.199550000000     0.829750000000     0.0359636  
H388     H      0.978040000000     0.183530000000     0.771140000000     0.0395682  
H389     H      0.967250000000     0.215340000000     0.947270000000     0.0458163  
H390     H      0.889590000000     0.183900000000     0.054310000000     0.0368844  
H391     H      0.891820000000     0.146150000000     0.874590000000     0.0466684  
H392     H      0.883690000000     0.164210000000     0.997420000000     0.039953   
H393     H      0.922400000000     0.209660000000     0.763640000000     0.0374534  
H394     H      0.951210000000     0.162510000000     0.046950000000     0.0275898  
H395     H      0.977330000000     0.203940000000     0.825200000000     0.0367323  
H396     H      0.945780000000     0.219920000000     0.820580000000     0.0374371  
H397     H      0.887850000000     0.144630000000     0.939780000000     0.0433407  
H398     H      0.904250000000     0.137600000000     0.993050000000     0.060986   
H399     H      0.945810000000     0.154790000000     0.780710000000     0.0381493  
H400     H      0.901800000000     0.143410000000     0.365840000000     0.0415205  
H401     H      0.953510000000     0.146440000000     0.484750000000     0.0388312  
H402     H      0.890550000000     0.167520000000     0.494340000000     0.0533662  
H403     H      0.984350000000     0.199840000000     0.288200000000     0.0350151  
H404     H      0.923640000000     0.120950000000     0.533280000000     0.0348524  
H405     H      0.920470000000     0.207210000000     0.339350000000     0.0357227  
H406     H      0.966690000000     0.167840000000     0.335380000000     0.0362232  
H407     H      0.919310000000     0.208330000000     0.272650000000     0.0387405  
H408     H      0.892230000000     0.129490000000     0.428390000000     0.0460087  
H409     H      0.956440000000     0.144990000000     0.552410000000     0.0443527  
H410     H      0.971010000000     0.216720000000     0.399080000000     0.0461002  
H411     H      0.962260000000     0.176350000000     0.506940000000     0.0464755  
H412     H      0.965830000000     0.168250000000     0.268660000000     0.0402002  
H413     H      0.880820000000     0.133560000000     0.537860000000     0.0212655  
H414     H      0.904470000000     0.175470000000     0.319480000000     0.0388356  
H415     H      0.931760000000     0.152260000000     0.316970000000     0.0388381  
H416     H      0.960570000000     0.203200000000     0.461810000000     0.0452188  
H417     H      0.924750000000     0.188580000000     0.513300000000     0.0598296  
H418     H      0.954070000000     0.226040000000     0.290950000000     0.0356941  
H419     H      0.242950000000     0.385010000000     0.518600000000     0.04225    
H420     H      0.251910000000     0.449810000000     0.398240000000     0.0359379  
H421     H      0.297930000000     0.411980000000     0.420590000000     0.055583   
H422     H      0.219510000000     0.419890000000     0.619800000000     0.0425817  
H423     H      0.248830000000     0.427730000000     0.343880000000     0.0360172  
H424     H      0.301140000000     0.451580000000     0.565800000000     0.0347825  
H425     H      0.214170000000     0.396970000000     0.565670000000     0.0371372  
H426     H      0.302530000000     0.447460000000     0.631930000000     0.0373079  
H427     H      0.248380000000     0.386310000000     0.453900000000     0.0465646  
H428     H      0.273560000000     0.461120000000     0.336800000000     0.0431829  
H429     H      0.276430000000     0.467560000000     0.519810000000     0.0443286  
H430     H      0.289770000000     0.467380000000     0.397050000000     0.0390877  
H431     H      0.217430000000     0.390150000000     0.632630000000     0.0442574  
H432     H      0.282770000000     0.399560000000     0.360360000000     0.0276731  
H433     H      0.288410000000     0.418820000000     0.580180000000     0.0392878  
H434     H      0.239390000000     0.387620000000     0.578930000000     0.0374777  
H435     H      0.284490000000     0.469250000000     0.455950000000     0.0411079  
H436     H      0.315480000000     0.446000000000     0.410870000000     0.0603307  
H437     H      0.282510000000     0.461960000000     0.617220000000     0.0390792  
H438     H      0.313870000000     0.431250000000     0.938160000000     0.0417822  
H439     H      0.325020000000     0.479000000000     0.064820000000     0.0393545  
H440     H      0.294210000000     0.398320000000     0.063140000000     0.0584209  
H441     H      0.260810000000     0.464700000000     0.869710000000     0.0322477  
H442     H      0.351760000000     0.469340000000     0.107540000000     0.039516   
H443     H      0.238900000000     0.394390000000     0.920750000000     0.0364015  
H444     H      0.298350000000     0.474260000000     0.911420000000     0.0357462  
H445     H      0.231970000000     0.391160000000     0.854280000000     0.0389238  
H446     H      0.332530000000     0.434220000000     0.998540000000     0.0471334  
H447     H      0.331080000000     0.480130000000     0.130700000000     0.0499685  
H448     H      0.244400000000     0.436450000000     0.981670000000     0.0461175  
H449     H      0.292690000000     0.458010000000     0.087880000000     0.0490412  
H450     H      0.291880000000     0.472070000000     0.845330000000     0.0386039  
H451     H      0.330850000000     0.416210000000     0.108060000000     0.0274585  
H452     H      0.270850000000     0.403990000000     0.896350000000     0.0394131  
H453     H      0.305830000000     0.451180000000     0.890340000000     0.038796   
H454     H      0.261980000000     0.437620000000     0.042150000000     0.0472326  
H455     H      0.274070000000     0.410380000000     0.085570000000     0.0651294  
H456     H      0.221630000000     0.412140000000     0.875500000000     0.0346312  
H457     H      0.076920000000     0.298770000000     0.221680000000     0.0415068  
H458     H      0.179400000000     0.328480000000     0.210080000000     0.0384514  
H459     H      0.166090000000     0.391280000000     0.190700000000     0.0550989  
H460     H      0.037010000000     0.238310000000     0.113350000000     0.0368075  
H461     H      0.210440000000     0.361410000000     0.250510000000     0.0377025  
H462     H      0.043310000000     0.306450000000     0.153900000000     0.0352529  
H463     H      0.075680000000     0.255180000000     0.155460000000     0.0363421  
H464     H      0.994260000000     0.268880000000     0.151370000000     0.0388077  
H465     H      0.123360000000     0.331690000000     0.242950000000     0.0460453  
H466     H      0.230780000000     0.358810000000     0.215210000000     0.0516545  
H467     H      0.107850000000     0.311600000000     0.113550000000     0.0461667  
H468     H      0.194680000000     0.348770000000     0.171450000000     0.0469079  
H469     H      0.027600000000     0.217330000000     0.151460000000     0.0410477  
H470     H      0.204030000000     0.410850000000     0.231060000000     0.025112   
H471     H      0.034580000000     0.284420000000     0.190980000000     0.0378696  
H472     H      0.053560000000     0.254090000000     0.191750000000     0.0391296  
H473     H      0.154430000000     0.343690000000     0.134820000000     0.0445102  
H474     H      0.185000000000     0.383210000000     0.159030000000     0.0625282  
H475     H      0.015080000000     0.271520000000     0.113020000000     0.0354107  
H476     H      0.401980000000     0.520130000000     0.432830000000     0.046534   
H477     H      0.421890000000     0.475370000000     0.324990000000     0.0440675  
H478     H      0.418620000000     0.543030000000     0.298850000000     0.0596626  
H479     H      0.444470000000     0.523730000000     0.529500000000     0.0357939  
H480     H      0.422850000000     0.481010000000     0.260010000000     0.0397465  
H481     H      0.468660000000     0.580790000000     0.455170000000     0.0365324  
H482     H      0.441340000000     0.501440000000     0.473290000000     0.0372529  
H483     H      0.498320000000     0.593010000000     0.510600000000     0.0419828  
H484     H      0.387680000000     0.506440000000     0.370980000000     0.0487749  
H485     H      0.391630000000     0.452030000000     0.273040000000     0.0507879  
H486     H      0.487780000000     0.545610000000     0.404610000000     0.0420869  
H487     H      0.388100000000     0.473220000000     0.328050000000     0.0602084  
H488     H      0.469070000000     0.512280000000     0.529570000000     0.040308   
H489     H      0.421920000000     0.520390000000     0.246020000000     0.0268278  
H490     H      0.495210000000     0.571520000000     0.453480000000     0.039076   
H491     H      0.478260000000     0.522380000000     0.464900000000     0.0404879  
H492     H      0.473680000000     0.533140000000     0.342410000000     0.0474247  
H493     H      0.385810000000     0.514940000000     0.311130000000     0.0624308  
H494     H      0.461730000000     0.571360000000     0.519140000000     0.0373818  
H495     H      0.553510000000     0.013280000000     0.696250000000     0.0460135  
H496     H      0.588380000000     0.967070000000     0.798030000000     0.0362556  
H497     H      0.615890000000     0.046970000000     0.796470000000     0.0547335  
H498     H      0.597220000000     0.046640000000     0.589960000000     0.0382978  
H499     H      0.576710000000     0.969930000000     0.856640000000     0.0376582  
H500     H      0.551210000000     0.971570000000     0.645160000000     0.0354221  
H501     H      0.623580000000     0.045690000000     0.639600000000     0.0370142  
H502     H      0.551020000000     0.968660000000     0.577660000000     0.0386693  
H503     H      0.558160000000     0.010620000000     0.761210000000     0.046895   
H504     H      0.611310000000     0.975340000000     0.862080000000     0.0402587  
H505     H      0.624830000000     0.002940000000     0.680190000000     0.04138    
H506     H      0.624730000000     0.990790000000     0.803860000000     0.0382345  
H507     H      0.623510000000     0.040770000000     0.571760000000     0.0402626  
H508     H      0.598510000000     0.038320000000     0.854420000000     0.0297044  
H509     H      0.583280000000     0.975790000000     0.626210000000     0.0383467  
H510     H      0.624320000000     0.017640000000     0.623340000000     0.036875   
H511     H      0.630660000000     0.002150000000     0.744670000000     0.0420619  
H512     H      0.639840000000     0.035170000000     0.802920000000     0.0620265  
H513     H      0.541800000000     0.991210000000     0.595560000000     0.038398   
H514     H      0.580670000000     0.992980000000     0.270480000000     0.0437335  
H515     H      0.541340000000     0.963370000000     0.142360000000     0.0391647  
H516     H      0.605810000000     0.041680000000     0.149410000000     0.0586061  
H517     H      0.512740000000     0.006590000000     0.346810000000     0.0385447  
H518     H      0.576920000000     0.968920000000     0.099370000000     0.0423366  
H519     H      0.589130000000     0.051370000000     0.294320000000     0.0386019  
H520     H      0.514230000000     0.978800000000     0.300340000000     0.0385275  
H521     H      0.591890000000     0.054320000000     0.360830000000     0.0472526  
H522     H      0.590770000000     0.987620000000     0.208320000000     0.0468576  
H523     H      0.546720000000     0.964850000000     0.075220000000     0.0473052  
H524     H      0.530410000000     0.025450000000     0.234330000000     0.0468123  
H525     H      0.536310000000     0.988000000000     0.121480000000     0.0431175  
H526     H      0.515850000000     0.980790000000     0.366980000000     0.0479327  
H527     H      0.618680000000     0.018800000000     0.106650000000     0.0272333  
H528     H      0.590630000000     0.024740000000     0.314850000000     0.0412296  
H529     H      0.545950000000     0.981450000000     0.318370000000     0.0460685  
H530     H      0.539880000000     0.019300000000     0.171960000000     0.0442104  
H531     H      0.574380000000     0.033790000000     0.124530000000     0.0601387  
H532     H      0.561110000000     0.053270000000     0.342960000000     0.0428362  
H533     H      0.755500000000     0.051970000000     0.141690000000     0.0463496  
H534     H      0.722180000000     0.020960000000     0.011900000000     0.0371845  
H535     H      0.724030000000     0.089870000000     0.043250000000     0.0578952  
H536     H      0.839890000000     0.083160000000     0.189010000000     0.0352592  
H537     H      0.701890000000     0.034280000000     0.964350000000     0.0404276  
H538     H      0.795770000000     0.116920000000     0.149420000000     0.037395   
H539     H      0.827150000000     0.066110000000     0.128260000000     0.0411742  
H540     H      0.838650000000     0.146050000000     0.184360000000     0.0394724  
H541     H      0.719690000000     0.037540000000     0.095200000000     0.0435385  
H542     H      0.675620000000     0.004650000000     0.983840000000     0.0422891  
H543     H      0.817530000000     0.103830000000     0.066780000000     0.0473653  
H544     H      0.696240000000     0.018780000000     0.043320000000     0.0418002  
H545     H      0.871050000000     0.094960000000     0.162280000000     0.0466177  
H546     H      0.699100000000     0.079140000000     0.987470000000     0.0324577  
H547     H      0.827070000000     0.129280000000     0.122550000000     0.0429631  
H548     H      0.846180000000     0.098190000000     0.109490000000     0.0533663  
H549     H      0.781660000000     0.089190000000     0.019870000000     0.0479765  
H550     H      0.698960000000     0.059880000000     0.063830000000     0.0645157  
H551     H      0.820340000000     0.113730000000     0.201780000000     0.0344969  
H552     H      0.211040000000     0.815250000000     0.534690000000     0.0424614  
H553     H      0.243690000000     0.804020000000     0.651630000000     0.0354798  
H554     H      0.211860000000     0.855190000000     0.666700000000     0.0540837  
H555     H      0.291490000000     0.885670000000     0.459060000000     0.0379305  
H556     H      0.209350000000     0.784270000000     0.698300000000     0.0332089  
H557     H      0.216380000000     0.869550000000     0.508690000000     0.0397301  
H558     H      0.283550000000     0.853960000000     0.505230000000     0.0350634  
H559     H      0.215390000000     0.870930000000     0.441920000000     0.0487734  
H560     H      0.200110000000     0.801310000000     0.597030000000     0.0452919  
H561     H      0.243140000000     0.797880000000     0.719410000000     0.0360698  
H562     H      0.278620000000     0.889010000000     0.569450000000     0.0461092  
H563     H      0.263880000000     0.833470000000     0.676520000000     0.0400064  
H564     H      0.283790000000     0.855590000000     0.438560000000     0.038916   
H565     H      0.185930000000     0.818800000000     0.706400000000     0.0188785  
H566     H      0.210450000000     0.839980000000     0.487920000000     0.0406673  
H567     H      0.250320000000     0.830710000000     0.486100000000     0.0387236  
H568     H      0.268800000000     0.874370000000     0.631820000000     0.0429347  
H569     H      0.244980000000     0.862660000000     0.686720000000     0.0572867  
H570     H      0.247650000000     0.895410000000     0.461000000000     0.0428017  
H571     H      0.160850000000     0.772010000000     0.060310000000     0.046282   
H572     H      0.243790000000     0.808280000000     0.162420000000     0.0363613  
H573     H      0.182140000000     0.830710000000     0.161810000000     0.0564737  
H574     H      0.162530000000     0.805970000000     0.952720000000     0.0364892  
H575     H      0.225500000000     0.798470000000     0.221640000000     0.0356831  
H576     H      0.210190000000     0.777850000000     0.007370000000     0.0359237  
H577     H      0.183130000000     0.832990000000     0.004490000000     0.0367233  
H578     H      0.215990000000     0.780580000000     0.941010000000     0.0386559  
H579     H      0.168100000000     0.776890000000     0.125350000000     0.0474119  
H580     H      0.258750000000     0.827350000000     0.224250000000     0.0404503  
H581     H      0.238700000000     0.843010000000     0.044290000000     0.0414564  
H582     H      0.253800000000     0.841860000000     0.166540000000     0.039265   
H583     H      0.189820000000     0.836900000000     0.937830000000     0.0406883  
H584     H      0.179610000000     0.816810000000     0.221830000000     0.0282207  
H585     H      0.233820000000     0.810180000000     0.991810000000     0.0386723  
H586     H      0.218150000000     0.842280000000     0.990120000000     0.0380316  
H587     H      0.245070000000     0.848680000000     0.108810000000     0.0421298  
H588     H      0.218730000000     0.854500000000     0.164440000000     0.0616092  
H589     H      0.180380000000     0.767720000000     0.955370000000     0.0369239  
H590     H      0.364350000000     0.908720000000     0.948260000000     0.0458354  
H591     H      0.462790000000     0.986220000000     0.925650000000     0.0363569  
H592     H      0.456030000000     0.912760000000     0.933900000000     0.0541695  
H593     H      0.292310000000     0.889770000000     0.885750000000     0.0381907  
H594     H      0.509880000000     0.997310000000     0.917720000000     0.0383399  
H595     H      0.350000000000     0.859350000000     0.882450000000     0.0361296  
H596     H      0.338330000000     0.923940000000     0.872290000000     0.0357479  
H597     H      0.304550000000     0.832120000000     0.848890000000     0.0387143  
H598     H      0.413490000000     0.933480000000     0.966800000000     0.0429482  
H599     H      0.507630000000     0.004630000000     0.963350000000     0.0416557  
H600     H      0.390110000000     0.913290000000     0.838570000000     0.0414431  
H601     H      0.459880000000     0.971490000000     0.968550000000     0.0401228  
H602     H      0.292670000000     0.895570000000     0.838810000000     0.0409179  
H603     H      0.504530000000     0.936850000000     0.929850000000     0.026784   
H604     H      0.347940000000     0.871250000000     0.838980000000     0.0372701  
H605     H      0.341470000000     0.907980000000     0.833230000000     0.0377777  
H606     H      0.439470000000     0.937530000000     0.857200000000     0.0459933  
H607     H      0.453980000000     0.929330000000     0.972720000000     0.0615517  
H608     H      0.301260000000     0.841090000000     0.893450000000     0.0365132  
H609     H      0.901750000000     0.689160000000     0.827470000000     0.0435448  
H610     H      0.977710000000     0.720080000000     0.732080000000     0.0372057  
H611     H      0.919580000000     0.641630000000     0.715930000000     0.0570182  
H612     H      0.959870000000     0.705270000000     0.943400000000     0.0380893  
H613     H      0.958950000000     0.713030000000     0.673410000000     0.0425711  
H614     H      0.894320000000     0.643290000000     0.879240000000     0.0379468  
H615     H      0.960070000000     0.720940000000     0.884890000000     0.0361536  
H616     H      0.877960000000     0.648430000000     0.940840000000     0.0437818  
H617     H      0.909420000000     0.687920000000     0.763050000000     0.0490742  
H618     H      0.993630000000     0.718200000000     0.668370000000     0.033951   
H619     H      0.969050000000     0.673910000000     0.849230000000     0.0466153  
H620     H      0.992080000000     0.699050000000     0.726320000000     0.0513237  
H621     H      0.943270000000     0.724410000000     0.946840000000     0.0391448  
H622     H      0.941060000000     0.638120000000     0.666160000000     0.038787   
H623     H      0.886800000000     0.669240000000     0.883990000000     0.0399588  
H624     H      0.924030000000     0.713160000000     0.887330000000     0.0395327  
H625     H      0.977460000000     0.673780000000     0.784820000000     0.0491969  
H626     H      0.950100000000     0.645200000000     0.737390000000     0.0613676  
H627     H      0.909210000000     0.646320000000     0.939380000000     0.0373286  
H628     H      0.954650000000     0.672030000000     0.334190000000     0.0430691  
H629     H      0.877440000000     0.632780000000     0.227080000000     0.036175   
H630     H      0.932090000000     0.713340000000     0.235240000000     0.0550334  
H631     H      0.895680000000     0.636710000000     0.444100000000     0.0377066  
H632     H      0.895830000000     0.640700000000     0.169230000000     0.0361988  
H633     H      0.932000000000     0.709060000000     0.385610000000     0.0379677  
H634     H      0.908070000000     0.629740000000     0.385530000000     0.0365502  
H635     H      0.949290000000     0.713130000000     0.448740000000     0.0451598  
H636     H      0.950190000000     0.672970000000     0.269080000000     0.0468756  
H637     H      0.863860000000     0.641060000000     0.164130000000     0.041137   
H638     H      0.874100000000     0.666620000000     0.346760000000     0.0459199  
H639     H      0.864510000000     0.655020000000     0.223120000000     0.0385576  
H640     H      0.926680000000     0.634320000000     0.448550000000     0.0421786  
H641     H      0.941030000000     0.708020000000     0.175890000000     0.0282005  
H642     H      0.957990000000     0.699430000000     0.391490000000     0.0420948  
H643     H      0.944350000000     0.654000000000     0.391300000000     0.0391399  
H644     H      0.870260000000     0.668870000000     0.281850000000     0.0422399  
H645     H      0.895090000000     0.699990000000     0.228940000000     0.0608988  
H646     H      0.912040000000     0.693720000000     0.443620000000     0.038256   
H647     H      0.724170000000     0.602990000000     0.521630000000     0.0414229  
H648     H      0.819500000000     0.669310000000     0.574540000000     0.0370083  
H649     H      0.804970000000     0.592960000000     0.581140000000     0.0547665  
H650     H      0.660140000000     0.616960000000     0.605670000000     0.0375115  
H651     H      0.859520000000     0.673950000000     0.545320000000     0.0369507  
H652     H      0.679550000000     0.558120000000     0.580260000000     0.0366354  
H653     H      0.705140000000     0.637820000000     0.576450000000     0.0365599  
H654     H      0.630220000000     0.546880000000     0.564810000000     0.0393292  
H655     H      0.774250000000     0.616860000000     0.518250000000     0.0460674  
H656     H      0.870980000000     0.685610000000     0.589520000000     0.0408761  
H657     H      0.730030000000     0.609360000000     0.636370000000     0.047608   
H658     H      0.826450000000     0.657370000000     0.615160000000     0.041331   
H659     H      0.656240000000     0.627150000000     0.562000000000     0.0402272  
H660     H      0.849350000000     0.611660000000     0.555520000000     0.0275537  
H661     H      0.676580000000     0.572120000000     0.538940000000     0.03793    
H662     H      0.691240000000     0.618350000000     0.536810000000     0.0379559  
H663     H      0.780030000000     0.623310000000     0.633050000000     0.0443231  
H664     H      0.816180000000     0.613810000000     0.619410000000     0.0620223  
H665     H      0.642070000000     0.561760000000     0.607720000000     0.0373189  
H666     H      0.047630000000     0.720020000000     0.722670000000     0.0497689  
H667     H      0.058740000000     0.681330000000     0.603800000000     0.0472375  
H668     H      0.072780000000     0.757500000000     0.590490000000     0.0589633  
H669     H      0.103280000000     0.727130000000     0.815420000000     0.0358114  
H670     H      0.058490000000     0.691290000000     0.540320000000     0.0377772  
H671     H      0.096030000000     0.777510000000     0.746740000000     0.0376398  
H672     H      0.107570000000     0.712490000000     0.756060000000     0.0394543  
H673     H      0.125110000000     0.797350000000     0.801000000000     0.044101   
H674     H      0.032860000000     0.710480000000     0.660120000000     0.056991   
H675     H      0.024410000000     0.665590000000     0.552720000000     0.0469329  
H676     H      0.134000000000     0.755270000000     0.689730000000     0.0427839  
H677     H      0.028490000000     0.684690000000     0.612010000000     0.0564397  
H678     H      0.138000000000     0.731990000000     0.810010000000     0.0398483  
H679     H      0.068420000000     0.734500000000     0.534240000000     0.0250217  
H680     H      0.131200000000     0.783130000000     0.741020000000     0.0440609  
H681     H      0.138330000000     0.743220000000     0.746710000000     0.0406172  
H682     H      0.119040000000     0.744210000000     0.627390000000     0.0470481  
H683     H      0.037380000000     0.733740000000     0.602720000000     0.0615204  
H684     H      0.095580000000     0.765890000000     0.809630000000     0.0357037  
N1       N      0.753590000000     0.895120000000     0.779540000000    -0.18545    
N2       N      0.781770000000     0.949570000000     0.769320000000    -0.109091   
N3       N      0.839880000000     0.048210000000     0.702880000000    -0.112625   
N4       N      0.878520000000     0.099330000000     0.682840000000    -0.17997    
N5       N      0.988160000000     0.241980000000     0.633820000000    -0.185886   
N6       N      0.026900000000     0.295440000000     0.628400000000    -0.108521   
N7       N      0.081180000000     0.400560000000     0.586280000000    -0.112224   
N8       N      0.096450000000     0.452670000000     0.577170000000    -0.179517   
N9       N      0.133930000000     0.591720000000     0.517920000000    -0.185952   
N10      N      0.145150000000     0.634520000000     0.475740000000    -0.108285   
N11      N      0.181180000000     0.731220000000     0.406950000000    -0.112207   
N12      N      0.201370000000     0.775880000000     0.365300000000    -0.180002   
N13      N      0.672330000000     0.744450000000     0.794560000000    -0.188575   
N14      N      0.649160000000     0.704470000000     0.845840000000    -0.109044   
N15      N      0.624490000000     0.658350000000     0.984270000000    -0.113302   
N16      N      0.608690000000     0.619470000000     0.036200000000    -0.181534   
N17      N      0.272880000000     0.920810000000     0.308230000000    -0.184387   
N18      N      0.295310000000     0.967030000000     0.269510000000    -0.107035   
N19      N      0.348550000000     0.068600000000     0.210230000000    -0.111889   
N20      N      0.374720000000     0.116040000000     0.175000000000    -0.180219   
N21      N      0.455030000000     0.265230000000     0.144000000000    -0.186537   
N22      N      0.482550000000     0.315040000000     0.114710000000    -0.108056   
N23      N      0.533830000000     0.421490000000     0.077030000000    -0.110646   
N24      N      0.552810000000     0.471340000000     0.050820000000    -0.177666   
N25      N      0.712160000000     0.819670000000     0.685320000000    -0.188062   
N26      N      0.712780000000     0.815670000000     0.610390000000    -0.109785   
N27      N      0.725880000000     0.791990000000     0.466730000000    -0.113156   
N28      N      0.729090000000     0.794230000000     0.391390000000    -0.181177   
N29      N      0.714440000000     0.821800000000     0.893840000000    -0.186572   
N30      N      0.719820000000     0.833370000000     0.967270000000    -0.108689   
N31      N      0.718670000000     0.839060000000     0.119480000000    -0.112971   
N32      N      0.720350000000     0.831780000000     0.193780000000    -0.181048   
N33      N      0.858370000000     0.710900000000     0.052580000000    -0.188571   
N34      N      0.826070000000     0.726600000000     0.092860000000    -0.109397   
N35      N      0.779430000000     0.748060000000     0.215110000000    -0.113018   
N36      N      0.756700000000     0.770940000000     0.259950000000    -0.181494   
N37      N      0.599170000000     0.969630000000     0.439420000000    -0.187363   
N38      N      0.624090000000     0.939560000000     0.420410000000    -0.109349   
N39      N      0.670560000000     0.886310000000     0.345870000000    -0.112887   
N40      N      0.693350000000     0.855560000000     0.323580000000    -0.180829   
N41      N      0.118570000000     0.544980000000     0.647150000000    -0.191031   
N42      N      0.110590000000     0.540430000000     0.720540000000    -0.108972   
N43      N      0.105470000000     0.513070000000     0.866810000000    -0.112975   
N44      N      0.105290000000     0.510360000000     0.941890000000    -0.181562   
N45      N      0.113140000000     0.498300000000     0.148340000000    -0.185154   
N46      N      0.115830000000     0.493950000000     0.223160000000    -0.108176   
N47      N      0.112630000000     0.500880000000     0.374790000000    -0.111702   
N48      N      0.113070000000     0.503960000000     0.449160000000    -0.180447   
N49      N      0.067330000000     0.537430000000     0.070200000000    -0.189396   
N50      N      0.041620000000     0.567760000000     0.077020000000    -0.110036   
N51      N      0.992130000000     0.630070000000     0.052600000000    -0.112835   
N52      N      0.957120000000     0.652020000000     0.055200000000    -0.18082    
N53      N      0.429290000000     0.205100000000     0.754720000000    -0.186961   
N54      N      0.432250000000     0.192290000000     0.826820000000    -0.10825    
N55      N      0.423470000000     0.187670000000     0.979010000000    -0.111592   
N56      N      0.416460000000     0.183950000000     0.053520000000    -0.180751   
N57      N      0.423750000000     0.238480000000     0.554530000000    -0.189199   
N58      N      0.418900000000     0.236790000000     0.478980000000    -0.109545   
N59      N      0.411880000000     0.203240000000     0.334810000000    -0.112479   
N60      N      0.413400000000     0.197920000000     0.260290000000    -0.179436   
N61      N      0.536420000000     0.056680000000     0.494230000000    -0.186494   
N62      N      0.517510000000     0.086130000000     0.530340000000    -0.108227   
N63      N      0.475420000000     0.149720000000     0.583410000000    -0.111971   
N64      N      0.455950000000     0.178620000000     0.620200000000    -0.178617   
N65      N      0.217980000000     0.464240000000     0.742690000000    -0.189626   
N66      N      0.195070000000     0.471720000000     0.805580000000    -0.110791   
N67      N      0.171590000000     0.460900000000     0.955000000000    -0.113758   
N68      N      0.151210000000     0.468620000000     0.019930000000    -0.180887   
N69      N      0.396680000000     0.265490000000     0.688350000000    -0.183524   
N70      N      0.374930000000     0.298800000000     0.698000000000    -0.108342   
N71      N      0.328560000000     0.360800000000     0.743150000000    -0.112869   
N72      N      0.299950000000     0.388920000000     0.747010000000    -0.180832   
N73      N      0.550580000000     0.572750000000     0.649250000000    -0.187198   
N74      N      0.565400000000     0.571320000000     0.718780000000    -0.105644   
N75      N      0.579290000000     0.561800000000     0.867860000000    -0.112323   
N76      N      0.578990000000     0.547430000000     0.939130000000    -0.181233   
N77      N      0.583330000000     0.546520000000     0.147100000000    -0.187694   
N78      N      0.585090000000     0.558530000000     0.219400000000    -0.108215   
N79      N      0.572790000000     0.563990000000     0.369840000000    -0.112738   
N80      N      0.572330000000     0.566480000000     0.444650000000    -0.181834   
N81      N      0.920160000000     0.172170000000     0.060260000000    -0.187272   
N82      N      0.927180000000     0.178510000000     0.987030000000    -0.10776    
N83      N      0.933290000000     0.181030000000     0.835040000000    -0.112025   
N84      N      0.940950000000     0.185630000000     0.761360000000    -0.180114   
N85      N      0.921500000000     0.151080000000     0.559550000000    -0.191493   
N86      N      0.920580000000     0.155470000000     0.485770000000    -0.109141   
N87      N      0.945390000000     0.189150000000     0.341280000000    -0.112993   
N88      N      0.945310000000     0.191040000000     0.265990000000    -0.181462   
N89      N      0.290690000000     0.435730000000     0.340050000000    -0.187795   
N90      N      0.270950000000     0.427350000000     0.411280000000    -0.108671   
N91      N      0.256720000000     0.427100000000     0.562850000000    -0.112001   
N92      N      0.257950000000     0.424120000000     0.637740000000    -0.17973    
N93      N      0.317460000000     0.439360000000     0.135040000000    -0.186419   
N94      N      0.311190000000     0.438890000000     0.059840000000    -0.109156   
N95      N      0.267550000000     0.434870000000     0.920220000000    -0.113183   
N96      N      0.259120000000     0.431940000000     0.845720000000    -0.182156   
N97      N      0.227510000000     0.393260000000     0.215080000000    -0.184764   
N98      N      0.169670000000     0.358590000000     0.204500000000    -0.108996   
N99      N      0.062390000000     0.283030000000     0.152210000000    -0.113144   
N100     N      0.007620000000     0.240560000000     0.147240000000    -0.181281   
N101     N      0.386260000000     0.484330000000     0.257650000000    -0.187897   
N102     N      0.422220000000     0.510710000000     0.315420000000    -0.10898    
N103     N      0.453060000000     0.540330000000     0.460540000000    -0.113397   
N104     N      0.486510000000     0.553420000000     0.522270000000    -0.18074    
N105     N      0.606920000000     0.008580000000     0.869270000000    -0.185959   
N106     N      0.597190000000     0.006040000000     0.796380000000    -0.107849   
N107     N      0.585170000000     0.010300000000     0.645400000000    -0.112122   
N108     N      0.581520000000     0.008640000000     0.570560000000    -0.180027   
N109     N      0.582280000000     0.003140000000     0.075100000000    -0.187172   
N110     N      0.574890000000     0.001810000000     0.149750000000    -0.10986    
N111     N      0.550660000000     0.015600000000     0.293200000000    -0.112581   
N112     N      0.552850000000     0.018630000000     0.368540000000    -0.178068   
N113     N      0.672890000000     0.038760000000     0.996040000000    -0.184763   
N114     N      0.726810000000     0.057180000000     0.027120000000    -0.10901    
N115     N      0.808450000000     0.089380000000     0.137280000000    -0.11302    
N116     N      0.857760000000     0.122570000000     0.174710000000    -0.181313   
N117     N      0.220540000000     0.817860000000     0.728320000000    -0.191851   
N118     N      0.225250000000     0.827990000000     0.655430000000    -0.109001   
N119     N      0.251160000000     0.863250000000     0.511130000000    -0.112708   
N120     N      0.251220000000     0.865610000000     0.435640000000    -0.178791   
N121     N      0.222800000000     0.831880000000     0.232560000000    -0.186446   
N122     N      0.209770000000     0.815590000000     0.160620000000    -0.108765   
N123     N      0.193820000000     0.803440000000     0.009360000000    -0.112689   
N124     N      0.198430000000     0.805470000000     0.934000000000    -0.180035   
N125     N      0.512730000000     0.971840000000     0.954600000000    -0.186287   
N126     N      0.459400000000     0.949180000000     0.923520000000    -0.108317   
N127     N      0.344530000000     0.892210000000     0.883190000000    -0.112539   
N128     N      0.291350000000     0.860290000000     0.853490000000    -0.179837   
N129     N      0.961040000000     0.679370000000     0.660730000000    -0.186672   
N130     N      0.947560000000     0.679880000000     0.731260000000    -0.104804   
N131     N      0.930330000000     0.680840000000     0.881110000000    -0.112101   
N132     N      0.916150000000     0.683550000000     0.952170000000    -0.179667   
N133     N      0.901160000000     0.677820000000     0.159640000000    -0.186892   
N134     N      0.908700000000     0.672370000000     0.232110000000    -0.108236   
N135     N      0.916110000000     0.668470000000     0.383740000000    -0.112541   
N136     N      0.932010000000     0.672250000000     0.455920000000    -0.179474   
N137     N      0.868270000000     0.649480000000     0.577040000000    -0.186433   
N138     N      0.810530000000     0.630310000000     0.571930000000    -0.108325   
N139     N      0.694500000000     0.598530000000     0.582580000000    -0.112635   
N140     N      0.638720000000     0.586080000000     0.569390000000    -0.180819   
N141     N      0.028010000000     0.703040000000     0.545480000000    -0.188662   
N142     N      0.066860000000     0.720190000000     0.602080000000    -0.109445   
N143     N      0.099550000000     0.743570000000     0.748170000000    -0.112709   
N144     N      0.134220000000     0.766300000000     0.807930000000    -0.18101    
O1       O      0.950440000000     0.657490000000     0.607470000000    -0.543956   
O2       O      0.937320000000     0.654370000000     0.507590000000    -0.555514   
O3       O      0.982880000000     0.669050000000     0.549220000000    -0.554195   
O4       O      0.905400000000     0.643020000000     0.566150000000    -0.539094   
O5       O      0.912820000000     0.683290000000     0.567330000000    -0.557938   
O6       O      0.990150000000     0.709200000000     0.550220000000    -0.538899   
O7       O      0.944890000000     0.694700000000     0.508720000000    -0.553952   
O8       O      0.958300000000     0.697940000000     0.608440000000    -0.557385   
O9       O      0.201690000000     0.826080000000     0.880760000000    -0.553532   
O10      O      0.215000000000     0.833120000000     0.780710000000    -0.504319   
O11      O      0.170190000000     0.806750000000     0.821650000000    -0.553105   
O12      O      0.247290000000     0.852980000000     0.839630000000    -0.550969   
O13      O      0.255070000000     0.819710000000     0.840920000000    -0.557481   
O14      O      0.178140000000     0.773600000000     0.822160000000    -0.556107   
O15      O      0.223750000000     0.800290000000     0.781490000000    -0.552563   
O16      O      0.209690000000     0.792950000000     0.881470000000    -0.55471    
O17      O      0.584520000000     0.984170000000     0.023050000000    -0.547226   
O18      O      0.598710000000     0.987700000000     0.923260000000    -0.55425    
O19      O      0.630970000000     0.002360000000     0.982620000000    -0.552171   
O20      O      0.552860000000     0.969880000000     0.964000000000    -0.539044   
O21      O      0.555690000000     0.008430000000     0.962390000000    -0.556452   
O22      O      0.633840000000     0.040850000000     0.979820000000    -0.527857   
O23      O      0.601680000000     0.026330000000     0.921090000000    -0.542486   
O24      O      0.588690000000     0.023270000000     0.020970000000    -0.531589   
O25      O      0.302710000000     0.420750000000     0.290490000000    -0.540127   
O26      O      0.315850000000     0.422560000000     0.190800000000    -0.535101   
O27      O      0.348220000000     0.443950000000     0.248980000000    -0.550824   
O28      O      0.270620000000     0.399580000000     0.232050000000    -0.549499   
O29      O      0.265120000000     0.433830000000     0.225400000000    -0.537157   
O30      O      0.342320000000     0.478100000000     0.245110000000    -0.534327   
O31      O      0.311580000000     0.457610000000     0.185760000000    -0.545205   
O32      O      0.295390000000     0.454090000000     0.284790000000    -0.555633   
O33      O      0.918110000000     0.190610000000     0.113230000000    -0.556788   
O34      O      0.929570000000     0.199120000000     0.213460000000    -0.557336   
O35      O      0.960320000000     0.223630000000     0.155620000000    -0.556818   
O36      O      0.887650000000     0.166270000000     0.171000000000    -0.55726    
O37      O      0.905300000000     0.139810000000     0.169850000000    -0.553196   
O38      O      0.977970000000     0.197180000000     0.155490000000    -0.560639   
O39      O      0.947360000000     0.172780000000     0.212980000000    -0.559941   
O40      O      0.936170000000     0.164480000000     0.112880000000    -0.54392    
O41      O      0.563450000000     0.592220000000     0.594310000000    -0.550977   
O42      O      0.576410000000     0.589600000000     0.495330000000    -0.559297   
O43      O      0.532550000000     0.583010000000     0.534220000000    -0.553794   
O44      O      0.606820000000     0.598670000000     0.555060000000    -0.559103   
O45      O      0.592300000000     0.556580000000     0.559220000000    -0.556174   
O46      O      0.517850000000     0.540960000000     0.539730000000    -0.559179   
O47      O      0.560780000000     0.547300000000     0.499850000000    -0.559259   
O48      O      0.548600000000     0.550070000000     0.599000000000    -0.558898   
O49      O      0.239790000000     0.409620000000     0.793730000000    -0.553515   
O50      O      0.238010000000     0.406730000000     0.692120000000    -0.547802   
O51      O      0.258820000000     0.389770000000     0.744160000000    -0.558385   
O52      O      0.218960000000     0.426260000000     0.741920000000    -0.539834   
O53      O      0.259180000000     0.463520000000     0.738280000000    -0.557425   
O54      O      0.299260000000     0.427060000000     0.743680000000    -0.556106   
O55      O      0.279310000000     0.443200000000     0.690440000000    -0.559478   
O56      O      0.279230000000     0.447740000000     0.791230000000    -0.561136   
O57      O      0.446610000000     0.247050000000     0.608470000000    -0.538519   
O58      O      0.449540000000     0.230420000000     0.705450000000    -0.542109   
O59      O      0.462630000000     0.217220000000     0.642220000000    -0.548474   
O60      O      0.433590000000     0.260160000000     0.671410000000    -0.547692   
O61      O      0.390290000000     0.226380000000     0.668740000000    -0.53735    
O62      O      0.419120000000     0.183980000000     0.636860000000    -0.557882   
O63      O      0.406790000000     0.195930000000     0.700710000000    -0.549378   
O64      O      0.402800000000     0.214360000000     0.604670000000    -0.557425   
O65      O      0.126400000000     0.526110000000     0.996010000000    -0.562915   
O66      O      0.132540000000     0.518040000000     0.095100000000    -0.541728   
O67      O      0.149850000000     0.505030000000     0.035770000000    -0.560225   
O68      O      0.108800000000     0.539020000000     0.056230000000    -0.533506   
O69      O      0.068880000000     0.501360000000     0.053450000000    -0.556193   
O70      O      0.109980000000     0.467230000000     0.034330000000    -0.55574    
O71      O      0.092390000000     0.480580000000     0.094210000000    -0.551463   
O72      O      0.086470000000     0.488350000000     0.994200000000    -0.554404   
O73      O      0.744490000000     0.838800000000     0.246480000000    -0.555563   
O74      O      0.748390000000     0.820960000000     0.342920000000    -0.55667    
O75      O      0.761760000000     0.809400000000     0.279510000000    -0.558961   
O76      O      0.731090000000     0.850620000000     0.310130000000    -0.556985   
O77      O      0.688060000000     0.816490000000     0.306200000000    -0.556016   
O78      O      0.718750000000     0.775470000000     0.274070000000    -0.555191   
O79      O      0.705490000000     0.786760000000     0.338200000000    -0.556764   
O80      O      0.701080000000     0.805260000000     0.242380000000    -0.55681    
O81      O      0.892120000000     0.663360000000     0.003170000000    -0.554196   
O82      O      0.886530000000     0.659510000000     0.104190000000    -0.556189   
O83      O      0.865240000000     0.675820000000     0.052400000000    -0.534301   
O84      O      0.913220000000     0.647330000000     0.054440000000    -0.560796   
O85      O      0.950280000000     0.686840000000     0.060180000000    -0.554346   
O86      O      0.902220000000     0.715360000000     0.055310000000    -0.551454   
O87      O      0.922820000000     0.699600000000     0.108190000000    -0.541207   
O88      O      0.929650000000     0.702750000000     0.007250000000    -0.556063   
O89      O      0.539550000000     0.998030000000     0.422750000000    -0.548225   
O90      O      0.554050000000     0.992470000000     0.520540000000    -0.555581   
O91      O      0.531450000000     0.016540000000     0.484310000000    -0.554716   
O92      O      0.562180000000     0.974230000000     0.458720000000    -0.535594   
O93      O      0.604340000000     0.009240000000     0.453710000000    -0.558235   
O94      O      0.573720000000     0.051510000000     0.479040000000    -0.541031   
O95      O      0.596110000000     0.027790000000     0.515550000000    -0.555815   
O96      O      0.581680000000     0.033210000000     0.417620000000    -0.548876   
O97      O      0.434890000000     0.185410000000     0.109040000000    -0.555126   
O98      O      0.435210000000     0.195630000000     0.209260000000    -0.554059   
O99      O      0.415620000000     0.154290000000     0.166360000000    -0.556594   
O100     O      0.454670000000     0.226890000000     0.152110000000    -0.555774   
O101     O      0.413990000000     0.226430000000     0.149270000000    -0.539631   
O102     O      0.374890000000     0.153540000000     0.160600000000    -0.556996   
O103     O      0.393830000000     0.193720000000     0.204920000000    -0.553902   
O104     O      0.395070000000     0.186460000000     0.104580000000    -0.559774   
O105     O      0.557240000000     0.540410000000     0.993380000000    -0.561522   
O106     O      0.560260000000     0.542520000000     0.094420000000    -0.544844   
O107     O      0.572420000000     0.577760000000     0.042130000000    -0.557872   
O108     O      0.545290000000     0.505620000000     0.045610000000    -0.552584   
O109     O      0.589160000000     0.512980000000     0.043630000000    -0.552414   
O110     O      0.616320000000     0.585220000000     0.040750000000    -0.558078   
O111     O      0.604340000000     0.550410000000     0.092770000000    -0.555494   
O112     O      0.601450000000     0.548640000000     0.991410000000    -0.555571   
O113     O      0.223560000000     0.856560000000     0.385740000000    -0.548726   
O114     O      0.208890000000     0.838400000000     0.287670000000    -0.536038   
O115     O      0.198480000000     0.811740000000     0.349660000000    -0.553788   
O116     O      0.233740000000     0.882690000000     0.324110000000    -0.530637   
O117     O      0.274710000000     0.883850000000     0.319800000000    -0.554824   
O118     O      0.239440000000     0.812880000000     0.344650000000    -0.558316   
O119     O      0.249720000000     0.839330000000     0.282950000000    -0.553812   
O120     O      0.264180000000     0.857010000000     0.381300000000    -0.553131   
O121     O      0.140430000000     0.539690000000     0.598400000000    -0.555749   
O122     O      0.136720000000     0.518800000000     0.502030000000    -0.558714   
O123     O      0.147210000000     0.562390000000     0.534820000000    -0.555554   
O124     O      0.129290000000     0.495140000000     0.565620000000    -0.551748   
O125     O      0.083820000000     0.482720000000     0.562800000000    -0.557197   
O126     O      0.101730000000     0.550060000000     0.534030000000    -0.537691   
O127     O      0.091240000000     0.506500000000     0.499980000000    -0.556716   
O128     O      0.094490000000     0.525960000000     0.597120000000    -0.505653   
O129     O      0.911640000000     0.166710000000     0.608650000000    -0.506549   
O130     O      0.921230000000     0.184500000000     0.706900000000    -0.557646   
O131     O      0.943050000000     0.210120000000     0.645680000000    -0.554163   
O132     O      0.889690000000     0.141010000000     0.670000000000    -0.552624   
O133     O      0.923800000000     0.131190000000     0.672280000000    -0.557647   
O134     O      0.977280000000     0.200580000000     0.649190000000    -0.535155   
O135     O      0.954980000000     0.174220000000     0.710180000000    -0.556545   
O136     O      0.945870000000     0.156920000000     0.611710000000    -0.549745   
O137     O      0.732570000000     0.819410000000     0.738610000000    -0.528757   
O138     O      0.734130000000     0.821410000000     0.839960000000    -0.555489   
O139     O      0.713490000000     0.783510000000     0.791130000000    -0.53522    
O140     O      0.752790000000     0.856640000000     0.787440000000    -0.538753   
O141     O      0.712340000000     0.856580000000     0.787060000000    -0.551187   
O142     O      0.672980000000     0.783170000000     0.791740000000    -0.549808   
O143     O      0.693530000000     0.821170000000     0.840280000000    -0.5364     
O144     O      0.691340000000     0.818020000000     0.738860000000    -0.55291    
V1       V      0.943770000000     0.654390000000     0.557460000000     1.40675    
V2       V      0.951820000000     0.697870000000     0.558640000000     1.41068    
V3       V      0.208310000000     0.831160000000     0.830690000000     1.40484    
V4       V      0.217010000000     0.795340000000     0.831560000000     1.38746    
V5       V      0.591690000000     0.984490000000     0.973250000000     1.39339    
V6       V      0.595010000000     0.026210000000     0.970870000000     1.425      
V7       V      0.309630000000     0.420380000000     0.240860000000     1.4146     
V8       V      0.303440000000     0.457320000000     0.235120000000     1.41509    
V9       V      0.923230000000     0.195990000000     0.163370000000     1.38906    
V10      V      0.942400000000     0.167510000000     0.162870000000     1.4131     
V11      V      0.570350000000     0.592550000000     0.544580000000     1.40139    
V12      V      0.554380000000     0.547070000000     0.549680000000     1.39793    
V13      V      0.237300000000     0.406570000000     0.743010000000     1.39975    
V14      V      0.280880000000     0.446830000000     0.740760000000     1.39741    
V15      V      0.449830000000     0.240030000000     0.657080000000     1.41801    
V16      V      0.403000000000     0.203850000000     0.652580000000     1.40254    
V17      V      0.130950000000     0.523540000000     0.045760000000     1.43097    
V18      V      0.087850000000     0.482810000000     0.044020000000     1.37863    
V19      V      0.748130000000     0.831310000000     0.294960000000     1.39395    
V20      V      0.701650000000     0.794610000000     0.290040000000     1.3891     
V21      V      0.887770000000     0.659960000000     0.053460000000     1.41232    
V22      V      0.927720000000     0.702730000000     0.057920000000     1.39724    
V23      V      0.545140000000     0.993910000000     0.471850000000     1.39855    
V24      V      0.590670000000     0.031780000000     0.466310000000     1.40521    
V25      V      0.436730000000     0.190570000000     0.159320000000     1.38764    
V26      V      0.392820000000     0.189980000000     0.154600000000     1.41257    
V27      V      0.557080000000     0.541300000000     0.043950000000     1.41445    
V28      V      0.604540000000     0.549510000000     0.042040000000     1.39       
V29      V      0.214500000000     0.847230000000     0.336950000000     1.4123     
V30      V      0.258630000000     0.848310000000     0.331920000000     1.38766    
V31      V      0.140210000000     0.529410000000     0.550370000000     1.38694    
V32      V      0.090940000000     0.515810000000     0.548470000000     1.4249     
V33      V      0.915020000000     0.176020000000     0.657650000000     1.41017    
V34      V      0.951920000000     0.165440000000     0.660990000000     1.40242    
V35      V      0.734800000000     0.820180000000     0.789310000000     1.434      
V36      V      0.690930000000     0.819770000000     0.789570000000     1.38599    


