data_structure

_audit_creation_method RASPA-1.0
_audit_creation_date 2023-6-5
_audit_author_name 'Poobodin Mano'

_cell_length_a    60.9986
_cell_length_b    61.2104
_cell_length_c    36.7591
_cell_angle_alpha 89.9597
_cell_angle_beta  90.0401
_cell_angle_gamma 119.869
_cell_volume      119018

_symmetry_cell_setting          triclinic
_symmetry_space_group_name_Hall 'P 1'
_symmetry_space_group_name_H-M  'P 1'
_symmetry_Int_Tables_number     1

_symmetry_equiv_pos_as_xyz 'x,y,z'

loop_
_atom_site_label
_atom_site_type_symbol
_atom_site_fract_x
_atom_site_fract_y
_atom_site_fract_z
_atom_site_charge
C1       C      0.843810000000     0.678890000000     0.667410000000     0.489272   
C2       C      0.883720000000     0.695650000000     0.542060000000     0.48988    
C3       C      0.820570000000     0.668450000000     0.573940000000     0.484455   
C4       C      0.906430000000     0.705780000000     0.634710000000     0.482644   
C5       C      0.182680000000     0.844530000000     0.750380000000     0.475391   
C6       C      0.179860000000     0.838250000000     0.887960000000     0.491295   
C7       C      0.133520000000     0.813140000000     0.816150000000     0.484732   
C8       C      0.228660000000     0.869580000000     0.823220000000     0.475852   
C9       C      0.528940000000     0.021540000000     0.913080000000     0.473601   
C10      C      0.506350000000     0.025270000000     0.044740000000     0.486696   
C11      C      0.471480000000     0.001650000000     0.963470000000     0.486292   
C12      C      0.564590000000     0.045580000000     0.996320000000     0.472921   
C13      C      0.168010000000     0.326700000000     0.401030000000     0.492729   
C14      C      0.190840000000     0.338840000000     0.267120000000     0.473722   
C15      C      0.224980000000     0.360200000000     0.351750000000     0.491704   
C16      C      0.132710000000     0.304550000000     0.317480000000     0.472674   
C17      C      0.837120000000     0.144280000000     0.210600000000     0.501554   
C18      C      0.874720000000     0.157120000000     0.084970000000     0.476657   
C19      C      0.895500000000     0.161600000000     0.179290000000     0.48788    
C20      C      0.812070000000     0.137110000000     0.118700000000     0.490539   
C21      C      0.511910000000     0.504510000000     0.571310000000     0.471668   
C22      C      0.517910000000     0.515620000000     0.434120000000     0.471606   
C23      C      0.562890000000     0.537400000000     0.507230000000     0.472777   
C24      C      0.467550000000     0.483200000000     0.497900000000     0.473573   
C25      C      0.182290000000     0.362110000000     0.771740000000     0.479224   
C26      C      0.212030000000     0.352210000000     0.896260000000     0.486311   
C27      C      0.219180000000     0.336120000000     0.804420000000     0.489979   
C28      C      0.174660000000     0.378550000000     0.862580000000     0.472963   
C29      C      0.375680000000     0.181220000000     0.706770000000     0.475639   
C30      C      0.360320000000     0.204450000000     0.580660000000     0.479925   
C31      C      0.347220000000     0.215980000000     0.671560000000     0.472527   
C32      C      0.388380000000     0.169990000000     0.614260000000     0.484073   
C33      C      0.017220000000     0.531080000000     0.935050000000     0.476155   
C34      C      0.020330000000     0.511130000000     0.068330000000     0.488571   
C35      C      0.041790000000     0.497530000000     0.982820000000     0.484206   
C36      C      0.995960000000     0.544210000000     0.019410000000     0.479719   
C37      C      0.727720000000     0.868880000000     0.270050000000     0.486423   
C38      C      0.707560000000     0.862490000000     0.404740000000     0.483668   
C39      C      0.738990000000     0.839790000000     0.345690000000     0.491214   
C40      C      0.696040000000     0.891890000000     0.328020000000     0.485068   
C41      C      0.861320000000     0.704380000000     0.171750000000     0.474633   
C42      C      0.841300000000     0.708450000000     0.038790000000     0.473273   
C43      C      0.829300000000     0.730980000000     0.122420000000     0.474584   
C44      C      0.873460000000     0.682120000000     0.088950000000     0.482076   
C45      C      0.560550000000     0.027920000000     0.541920000000     0.488991   
C46      C      0.531300000000     0.034780000000     0.415370000000     0.47422    
C47      C      0.521660000000     0.050980000000     0.504830000000     0.475372   
C48      C      0.570120000000     0.011280000000     0.450950000000     0.472806   
C49      C      0.365560000000     0.183580000000     0.079750000000     0.486651   
C50      C      0.359520000000     0.171610000000     0.216540000000     0.490293   
C51      C      0.382160000000     0.225310000000     0.157190000000     0.485196   
C52      C      0.343300000000     0.131020000000     0.139780000000     0.492697   
C53      C      0.505230000000     0.487780000000     0.943490000000     0.488776   
C54      C      0.539490000000     0.535020000000     0.062280000000     0.48896    
C55      C      0.544400000000     0.551850000000     0.967140000000     0.486931   
C56      C      0.499920000000     0.470130000000     0.038410000000     0.477157   
C57      C      0.220250000000     0.875490000000     0.385130000000     0.490157   
C58      C      0.184580000000     0.834120000000     0.263380000000     0.473024   
C59      C      0.177070000000     0.811690000000     0.355260000000     0.471682   
C60      C      0.226820000000     0.896450000000     0.292710000000     0.476709   
C61      C      0.024650000000     0.544320000000     0.562470000000     0.489118   
C62      C      0.007770000000     0.498070000000     0.442110000000     0.478683   
C63      C      0.994560000000     0.480090000000     0.537520000000     0.484062   
C64      C      0.038020000000     0.562340000000     0.467390000000     0.488539   
C65      C      0.855440000000     0.186600000000     0.718870000000     0.494257   
C66      C      0.839270000000     0.174920000000     0.583360000000     0.481528   
C67      C      0.825300000000     0.134560000000     0.660520000000     0.502452   
C68      C      0.870060000000     0.229030000000     0.642340000000     0.473443   
C69      C      0.680460000000     0.829510000000     0.771510000000     0.474735   
C70      C      0.703320000000     0.864930000000     0.899300000000     0.473443   
C71      C      0.712000000000     0.891170000000     0.808880000000     0.473249   
C72      C      0.671220000000     0.802690000000     0.860520000000     0.472391   
C73      C      0.803640000000     0.080500000000     0.722220000000    -0.0100716  
C74      C      0.717330000000     0.949260000000     0.767100000000    -0.0320396  
C75      C      0.750040000000     0.928940000000     0.786610000000    -0.000213457
C76      C      0.705750000000     0.920830000000     0.771460000000    -0.00160967 
C77      C      0.773790000000     0.994660000000     0.715520000000    -0.0521066  
C78      C      0.757810000000     0.027430000000     0.740730000000    -0.0530442  
C79      C      0.754970000000     0.986330000000     0.742330000000     0.0612136  
C80      C      0.759200000000     0.957090000000     0.782450000000    -0.0327474  
C81      C      0.776150000000     0.035560000000     0.713210000000     0.0626807  
C82      C      0.794960000000     0.064150000000     0.660390000000    -0.0538306  
C83      C      0.784710000000     0.019130000000     0.701610000000    -0.054895   
C84      C      0.799390000000     0.089520000000     0.645140000000     0.0949646  
C85      C      0.806200000000     0.105460000000     0.709820000000    -0.0545784  
C86      C      0.747770000000     0.003400000000     0.755850000000    -0.0544601  
C87      C      0.945490000000     0.423280000000     0.588650000000    -0.0337883  
C88      C      0.920140000000     0.293790000000     0.616690000000    -0.0318599  
C89      C      0.868060000000     0.268300000000     0.642830000000    -0.00150263 
C90      C      0.910210000000     0.269230000000     0.638050000000    -0.00161194 
C91      C      0.928610000000     0.352700000000     0.639970000000    -0.0527579  
C92      C      0.933740000000     0.363080000000     0.565350000000    -0.053431   
C93      C      0.919010000000     0.332770000000     0.615080000000     0.061748   
C94      C      0.880060000000     0.292880000000     0.621050000000    -0.0318906  
C95      C      0.943740000000     0.383040000000     0.590300000000     0.0614411  
C96      C      0.984290000000     0.421170000000     0.586440000000    -0.05369    
C97      C      0.940790000000     0.377610000000     0.627840000000    -0.0558438  
C98      C      0.998920000000     0.449800000000     0.577330000000     0.0962169  
C99      C      0.955750000000     0.447020000000     0.565490000000     0.010358   
C100     C      0.921330000000     0.338100000000     0.577540000000    -0.0559224  
C101     C      0.049760000000     0.620380000000     0.415730000000    -0.0329201  
C102     C      0.158710000000     0.747190000000     0.391780000000    -0.0321232  
C103     C      0.135700000000     0.778210000000     0.376240000000    -0.00128037 
C104     C      0.173840000000     0.771080000000     0.369240000000    -0.000397362
C105     C      0.105560000000     0.691870000000     0.370840000000    -0.0519375  
C106     C      0.099930000000     0.679460000000     0.444780000000    -0.0524817  
C107     C      0.116740000000     0.711050000000     0.396790000000     0.0621117  
C108     C      0.123010000000     0.753560000000     0.397890000000    -0.0317876  
C109     C      0.088790000000     0.660220000000     0.418760000000     0.0629573  
C110     C      0.089840000000     0.621460000000     0.422390000000    -0.0524608  
C111     C      0.091800000000     0.666690000000     0.381560000000    -0.0557949  
C112     C      0.075280000000     0.592860000000     0.431780000000     0.0971295  
C113     C      0.034570000000     0.596040000000     0.437060000000     0.010431   
C114     C      0.113890000000     0.704710000000     0.433990000000    -0.0546094  
C115     C      0.556880000000     0.610700000000     0.917380000000    -0.0320761  
C116     C      0.661630000000     0.739920000000     0.892030000000    -0.0319525  
C117     C      0.631860000000     0.764280000000     0.876290000000    -0.000861274
C118     C      0.674130000000     0.764590000000     0.870540000000    -0.000840049
C119     C      0.611750000000     0.681020000000     0.869990000000    -0.0527027  
C120     C      0.607880000000     0.668460000000     0.943790000000    -0.0531188  
C121     C      0.622380000000     0.700190000000     0.896040000000     0.0616496  
C122     C      0.622120000000     0.739650000000     0.897370000000    -0.0320461  
C123     C      0.596950000000     0.649270000000     0.917710000000     0.0623516  
C124     C      0.595940000000     0.609260000000     0.918670000000    -0.0529444  
C125     C      0.599170000000     0.655780000000     0.880580000000    -0.0562738  
C126     C      0.580280000000     0.580610000000     0.927670000000     0.0967703  
C127     C      0.541770000000     0.586720000000     0.939400000000     0.00898167 
C128     C      0.620550000000     0.693770000000     0.933150000000    -0.0553772  
C129     C      0.334680000000     0.065770000000     0.142230000000    -0.031299   
C130     C      0.242740000000     0.958740000000     0.251910000000    -0.0320273  
C131     C      0.264730000000     0.926070000000     0.258350000000     0.000155738
C132     C      0.225390000000     0.930930000000     0.260780000000    -0.000140866
C133     C      0.279630000000     0.988930000000     0.175920000000    -0.0507837  
C134     C      0.301260000000     0.032250000000     0.219180000000    -0.0519974  
C135     C      0.278070000000     0.986570000000     0.213840000000     0.0624222  
C136     C      0.279900000000     0.954270000000     0.249790000000    -0.0322886  
C137     C      0.302110000000     0.034600000000     0.181220000000     0.0653835  
C138     C      0.293660000000     0.062770000000     0.145570000000    -0.0524897  
C139     C      0.291660000000     0.012690000000     0.159620000000    -0.0560294  
C140     C      0.304930000000     0.089660000000     0.129390000000     0.0999623  
C141     C      0.349270000000     0.094260000000     0.136010000000     0.00957726 
C142     C      0.289500000000     0.008450000000     0.235490000000    -0.0532048  
C143     C      0.430080000000     0.294360000000     0.163530000000    -0.0330877  
C144     C      0.448020000000     0.410540000000     0.076990000000    -0.0325606  
C145     C      0.503060000000     0.437000000000     0.072210000000     0.000257841
C146     C      0.462530000000     0.439270000000     0.073060000000     3.65412e-05
C147     C      0.446180000000     0.370030000000     0.144040000000    -0.0531165  
C148     C      0.427970000000     0.331410000000     0.092330000000    -0.051981   
C149     C      0.449640000000     0.376110000000     0.106990000000     0.0623138  
C150     C      0.486690000000     0.408460000000     0.076130000000    -0.0325459  
C151     C      0.425060000000     0.325330000000     0.129420000000     0.0616082  
C152     C      0.388640000000     0.290080000000     0.157130000000    -0.0537668  
C153     C      0.433910000000     0.344890000000     0.155290000000    -0.0556713  
C154     C      0.376300000000     0.262010000000     0.169110000000     0.0973374  
C155     C      0.420600000000     0.266160000000     0.164120000000     0.00960956 
C156     C      0.440060000000     0.356570000000     0.081070000000    -0.0557172  
C157     C      0.716350000000     0.867500000000     0.505580000000    -0.0346206  
C158     C      0.655170000000     0.828090000000     0.683180000000    -0.0319257  
C159     C      0.692810000000     0.817350000000     0.714010000000    -0.00157886 
C160     C      0.650360000000     0.814160000000     0.719520000000    -0.00197089 
C161     C      0.671500000000     0.817750000000     0.594540000000    -0.0479575  
C162     C      0.688560000000     0.868840000000     0.582480000000    -0.0565736  
C163     C      0.675450000000     0.833600000000     0.624230000000     0.0602933  
C164     C      0.696840000000     0.831540000000     0.678180000000    -0.0318449  
C165     C      0.684750000000     0.852970000000     0.552820000000     0.068461   
C166     C      0.670930000000     0.852300000000     0.489490000000    -0.0542563  
C167     C      0.676320000000     0.827330000000     0.559170000000    -0.0593688  
C168     C      0.677500000000     0.841510000000     0.455680000000     0.0970727  
C169     C      0.722420000000     0.877490000000     0.466700000000     0.00701921 
C170     C      0.684200000000     0.859370000000     0.617960000000    -0.0534098  
C171     C      0.725160000000     0.853310000000     0.170460000000    -0.0329255  
C172     C      0.694140000000     0.880050000000     0.993600000000    -0.0321326  
C173     C      0.733010000000     0.877470000000     0.950880000000    -0.000838657
C174     C      0.696060000000     0.885410000000     0.952580000000    -0.00210817 
C175     C      0.744270000000     0.901480000000     0.064040000000    -0.0525275  
C176     C      0.703720000000     0.868470000000     0.107380000000    -0.0500696  
C177     C      0.720730000000     0.886090000000     0.047720000000     0.0630495  
C178     C      0.728750000000     0.871240000000     0.991330000000    -0.0322524  
C179     C      0.727760000000     0.882530000000     0.123500000000     0.0618957  
C180     C      0.755100000000     0.897360000000     0.178600000000    -0.0534299  
C181     C      0.747960000000     0.899590000000     0.101130000000    -0.0513571  
C182     C      0.757090000000     0.892220000000     0.219640000000     0.0975171  
C183     C      0.718090000000     0.848040000000     0.210580000000     0.0103827  
C184     C      0.700360000000     0.869480000000     0.069910000000    -0.0550951  
C185     C      0.785560000000     0.831750000000     0.307660000000    -0.0362123  
C186     C      0.786520000000     0.741000000000     0.177400000000    -0.0321709  
C187     C      0.831370000000     0.771950000000     0.133820000000    -0.00170773 
C188     C      0.790370000000     0.731470000000     0.140830000000    -0.00163937 
C189     C      0.780470000000     0.791570000000     0.206450000000    -0.0497813  
C190     C      0.794380000000     0.783370000000     0.275450000000    -0.0536465  
C191     C      0.793650000000     0.778360000000     0.209710000000     0.0616572  
C192     C      0.826590000000     0.780500000000     0.170630000000    -0.0320531  
C193     C      0.780890000000     0.796250000000     0.272220000000     0.0652056  
C194     C      0.745910000000     0.790950000000     0.309580000000    -0.0576747  
C195     C      0.774140000000     0.800520000000     0.237370000000    -0.0549109  
C196     C      0.739550000000     0.798110000000     0.346560000000     0.102116   
C197     C      0.779010000000     0.839110000000     0.344320000000    -0.000624336
C198     C      0.800800000000     0.774510000000     0.244530000000    -0.0539808  
C199     C      0.645560000000     0.909870000000     0.320150000000    -0.0329015  
C200     C      0.622950000000     0.002650000000     0.415590000000    -0.0324312  
C201     C      0.568000000000     0.973950000000     0.422600000000    -0.00104122 
C202     C      0.608440000000     0.016920000000     0.420160000000    -0.00107909 
C203     C      0.624740000000     0.965610000000     0.346980000000    -0.0520626  
C204     C      0.643720000000     0.944320000000     0.396300000000    -0.0527463  
C205     C      0.621110000000     0.966980000000     0.384330000000     0.062025   
C206     C      0.584710000000     0.962100000000     0.417800000000    -0.0319964  
C207     C      0.646950000000     0.942540000000     0.358900000000     0.0622333  
C208     C      0.685330000000     0.947530000000     0.332340000000    -0.0541589  
C209     C      0.637680000000     0.953670000000     0.334260000000    -0.0553085  
C210     C      0.699980000000     0.933970000000     0.320610000000     0.0981674  
C211     C      0.656830000000     0.892600000000     0.316970000000     0.00889673 
C212     C      0.631030000000     0.956550000000     0.409050000000    -0.0552882  
C213     C      0.010870000000     0.564320000000     0.652210000000    -0.0318488  
C214     C      0.040550000000     0.554360000000     0.841990000000    -0.0324422  
C215     C      0.992260000000     0.524030000000     0.878840000000    -0.000644322
C216     C      0.038290000000     0.558720000000     0.882460000000     0.000179335
C217     C      0.022540000000     0.569670000000     0.767370000000    -0.0516268  
C218     C      0.019860000000     0.530200000000     0.725850000000    -0.0525038  
C219     C      0.018470000000     0.547610000000     0.784840000000     0.0618193  
C220     C      0.996510000000     0.521800000000     0.838260000000    -0.032631   
C221     C      0.023150000000     0.551980000000     0.708300000000     0.0644814  
C222     C      0.051440000000     0.566760000000     0.656690000000    -0.0518911  
C223     C      0.025300000000     0.572100000000     0.729600000000    -0.0558029  
C224     C      0.053360000000     0.566130000000     0.614540000000     0.0987004  
C225     C      0.007420000000     0.558040000000     0.611730000000     0.010058   
C226     C      0.017960000000     0.528120000000     0.763780000000    -0.0529861  
C227     C      0.003600000000     0.474770000000     0.155180000000    -0.0314855  
C228     C      0.993520000000     0.493130000000     0.346300000000    -0.0344776  
C229     C      0.018730000000     0.475500000000     0.395680000000     0.0014161  
C230     C      0.983250000000     0.484480000000     0.384770000000     0.00162636 
C231     C      0.990160000000     0.469130000000     0.270390000000    -0.0532961  
C232     C      0.037950000000     0.501770000000     0.242020000000    -0.0511642  
C233     C      0.010490000000     0.482180000000     0.294420000000     0.0627224  
C234     C      0.027310000000     0.483580000000     0.356320000000    -0.0343298  
C235     C      0.017500000000     0.489150000000     0.218000000000     0.0611112  
C236     C      0.023130000000     0.518740000000     0.170600000000    -0.0556731  
C237     C      0.993350000000     0.472970000000     0.232830000000    -0.0540233  
C238     C      0.033310000000     0.527420000000     0.131830000000     0.0974021  
C239     C      0.012610000000     0.480480000000     0.115780000000    -0.00231798 
C240     C      0.034500000000     0.498880000000     0.279710000000    -0.0536572  
C241     C      0.883370000000     0.627010000000     0.075970000000    -0.0327881  
C242     C      0.983740000000     0.597150000000     0.036630000000    -0.0307648  
C243     C      0.956130000000     0.542200000000     0.037750000000    -0.00135172 
C244     C      0.998270000000     0.583070000000     0.042690000000    -0.00283788 
C245     C      0.938010000000     0.601480000000     0.086490000000    -0.0525321  
C246     C      0.926980000000     0.619680000000     0.023340000000    -0.0522446  
C247     C      0.944950000000     0.596470000000     0.052570000000     0.0630317  
C248     C      0.943680000000     0.558290000000     0.031860000000    -0.0313416  
C249     C      0.920190000000     0.624860000000     0.057310000000     0.061907   
C250     C      0.924540000000     0.664290000000     0.077420000000    -0.0530125  
C251     C      0.925750000000     0.615540000000     0.088990000000    -0.0545709  
C252     C      0.913390000000     0.682100000000     0.074020000000     0.0993026  
C253     C      0.869830000000     0.642030000000     0.070350000000     0.000193186
C254     C      0.939250000000     0.605590000000     0.020860000000    -0.0554897  
C255     C      0.345860000000     0.175870000000     0.982040000000    -0.0341422  
C256     C      0.399210000000     0.197770000000     0.797830000000    -0.0318103  
C257     C      0.359700000000     0.153450000000     0.761010000000    -0.00164654 
C258     C      0.403890000000     0.190250000000     0.760190000000    -0.00175573 
C259     C      0.381520000000     0.167560000000     0.882870000000    -0.0476722  
C260     C      0.367910000000     0.203650000000     0.900570000000    -0.0559775  
C261     C      0.377520000000     0.180790000000     0.855010000000     0.0607372  
C262     C      0.356020000000     0.161950000000     0.798560000000    -0.0319919  
C263     C      0.372270000000     0.190640000000     0.928410000000     0.0687571  
C264     C      0.392630000000     0.205490000000     0.988080000000    -0.0541669  
C265     C      0.378740000000     0.172250000000     0.919270000000    -0.0584018  
C266     C      0.389380000000     0.189510000000     0.022480000000     0.0971544  
C267     C      0.344120000000     0.181460000000     0.022120000000     0.0068858  
C268     C      0.370300000000     0.198680000000     0.864110000000    -0.0531605  
C269     C      0.376760000000     0.169510000000     0.314340000000    -0.0323533  
C270     C      0.335020000000     0.197990000000     0.486150000000    -0.0302874  
C271     C      0.376630000000     0.231820000000     0.526110000000     0.000914469
C272     C      0.332190000000     0.194460000000     0.527460000000     0.00047105 
C273     C      0.358780000000     0.172830000000     0.426670000000    -0.0526343  
C274     C      0.361890000000     0.207020000000     0.373600000000    -0.0514344  
C275     C      0.360320000000     0.195510000000     0.437280000000     0.0661366  
C276     C      0.381620000000     0.223170000000     0.489150000000    -0.0319702  
C277     C      0.360570000000     0.184420000000     0.362920000000     0.0627652  
C278     C      0.333740000000     0.161230000000     0.312710000000    -0.0527428  
C279     C      0.358570000000     0.167110000000     0.389870000000    -0.0531235  
C280     C      0.332200000000     0.156010000000     0.271190000000     0.0981148  
C281     C      0.380230000000     0.171130000000     0.273180000000     0.00971717 
C282     C      0.361490000000     0.212470000000     0.410450000000    -0.055939   
C283     C      0.435820000000     0.157950000000     0.566200000000    -0.033997   
C284     C      0.468830000000     0.058450000000     0.544750000000    -0.031983   
C285     C      0.520020000000     0.089600000000     0.516230000000    -0.00100249 
C286     C      0.480500000000     0.045650000000     0.522590000000    -0.000365584
C287     C      0.452670000000     0.103530000000     0.519710000000    -0.0527813  
C288     C      0.449530000000     0.111760000000     0.593890000000    -0.0532758  
C289     C      0.464590000000     0.095810000000     0.544980000000     0.0619047  
C290     C      0.505860000000     0.099510000000     0.538960000000    -0.0313786  
C291     C      0.437720000000     0.119640000000     0.568520000000     0.0614534  
C292     C      0.397180000000     0.117560000000     0.574340000000    -0.0537364  
C293     C      0.439370000000     0.115360000000     0.531220000000    -0.0559371  
C294     C      0.382890000000     0.132400000000     0.580790000000     0.0960719  
C295     C      0.426470000000     0.172800000000     0.587980000000     0.0105883  
C296     C      0.462930000000     0.099960000000     0.582310000000    -0.0559396  
C297     C      0.094910000000     0.487740000000     0.951980000000    -0.0324635  
C298     C      0.123980000000     0.387900000000     0.905580000000    -0.0318073  
C299     C      0.175480000000     0.418000000000     0.877780000000    -0.000595248
C300     C      0.134390000000     0.375210000000     0.880690000000    -0.00128094 
C301     C      0.114000000000     0.439080000000     0.889500000000    -0.0531773  
C302     C      0.105890000000     0.437980000000     0.964520000000    -0.0529741  
C303     C      0.122770000000     0.426770000000     0.912290000000     0.0621793  
C304     C      0.162680000000     0.427940000000     0.903350000000    -0.0321406  
C305     C      0.096560000000     0.449790000000     0.941590000000     0.061082   
C306     C      0.056490000000     0.448620000000     0.942080000000    -0.0554034  
C307     C      0.101170000000     0.450650000000     0.903880000000    -0.0550635  
C308     C      0.039970000000     0.457810000000     0.960940000000     0.0961658  
C309     C      0.081990000000     0.498640000000     0.975110000000     0.000246277
C310     C      0.119100000000     0.426720000000     0.950120000000    -0.0560549  
C311     C      0.270140000000     0.328280000000     0.758930000000    -0.0316125  
C312     C      0.297750000000     0.228260000000     0.711430000000    -0.0320941  
C313     C      0.350750000000     0.256340000000     0.689240000000    -0.00111293 
C314     C      0.307760000000     0.215550000000     0.685970000000    -0.000939892
C315     C      0.288810000000     0.279010000000     0.698860000000    -0.052597   
C316     C      0.283450000000     0.279760000000     0.774340000000    -0.0525851  
C317     C      0.299060000000     0.267900000000     0.721340000000     0.0619526  
C318     C      0.338040000000     0.266670000000     0.714370000000    -0.0320612  
C319     C      0.272960000000     0.290670000000     0.751800000000     0.0625415  
C320     C      0.232330000000     0.287910000000     0.757520000000    -0.0538922  
C321     C      0.275880000000     0.290300000000     0.713800000000    -0.0556205  
C322     C      0.216650000000     0.297360000000     0.778240000000     0.0963649  
C323     C      0.258770000000     0.340190000000     0.783170000000     0.00227553 
C324     C      0.296430000000     0.268450000000     0.759330000000    -0.0549158  
C325     C      0.471670000000     0.471110000000     0.853480000000    -0.03136    
C326     C      0.516020000000     0.482890000000     0.665190000000    -0.0324628  
C327     C      0.497960000000     0.513540000000     0.629300000000    -0.00171647 
C328     C      0.510230000000     0.479270000000     0.624420000000    -0.000643748
C329     C      0.479580000000     0.465950000000     0.738310000000    -0.0520423  
C330     C      0.516920000000     0.503360000000     0.781960000000    -0.0536715  
C331     C      0.498930000000     0.487730000000     0.721990000000     0.0608001  
C332     C      0.503840000000     0.514770000000     0.669970000000    -0.0320055  
C333     C      0.497140000000     0.481910000000     0.798350000000     0.0645725  
C334     C      0.506720000000     0.463490000000     0.849730000000    -0.051784   
C335     C      0.478820000000     0.462810000000     0.776040000000    -0.0568372  
C336     C      0.509120000000     0.463800000000     0.891820000000     0.0984871  
C337     C      0.474230000000     0.476190000000     0.894400000000     0.00903184 
C338     C      0.518090000000     0.506160000000     0.744100000000    -0.0531067  
C339     C      0.555920000000     0.532520000000     0.153610000000    -0.0333133  
C340     C      0.523760000000     0.544730000000     0.342830000000    -0.0320335  
C341     C      0.521460000000     0.499800000000     0.374020000000    -0.00111941 
C342     C      0.510890000000     0.535000000000     0.379710000000    -0.00197921 
C343     C      0.512300000000     0.516020000000     0.255500000000    -0.0528825  
C344     C      0.559270000000     0.557170000000     0.237300000000    -0.053419   
C345     C      0.528930000000     0.530560000000     0.283250000000     0.061442   
C346     C      0.534230000000     0.511520000000     0.337770000000    -0.0321906  
C347     C      0.542380000000     0.542980000000     0.209570000000     0.0620959  
C348     C      0.531270000000     0.554190000000     0.151610000000    -0.0572493  
C349     C      0.518980000000     0.521940000000     0.218970000000    -0.0556435  
C350     C      0.541870000000     0.564630000000     0.113620000000     0.100206   
C351     C      0.566720000000     0.542530000000     0.115620000000    -0.00298528 
C352     C      0.552800000000     0.550920000000     0.273850000000    -0.0553926  
C353     C      0.889530000000     0.198850000000     0.806140000000    -0.0313964  
C354     C      0.870030000000     0.145860000000     0.989680000000    -0.0319851  
C355     C      0.903510000000     0.186560000000     0.038090000000    -0.00122431 
C356     C      0.878730000000     0.140130000000     0.025780000000    -0.00186785 
C357     C      0.895320000000     0.170170000000     0.910310000000    -0.0533355  
C358     C      0.861990000000     0.188100000000     0.896670000000    -0.0531303  
C359     C      0.883840000000     0.175250000000     0.939560000000     0.062063   
C360     C      0.894500000000     0.191250000000     0.001680000000    -0.0317013  
C361     C      0.873930000000     0.183620000000     0.867420000000     0.0616459  
C362     C      0.847100000000     0.164170000000     0.815570000000    -0.0554369  
C363     C      0.890110000000     0.173830000000     0.874530000000    -0.0551258  
C364     C      0.837210000000     0.169640000000     0.780180000000     0.100258   
C365     C      0.882200000000     0.206830000000     0.771030000000    -0.00093    
C366     C      0.866450000000     0.183530000000     0.932370000000    -0.0554993  
C367     C      0.848500000000     0.154410000000     0.310010000000    -0.023587   
C368     C      0.809630000000     0.168070000000     0.491600000000    -0.030642   
C369     C      0.851480000000     0.164920000000     0.524810000000    -0.00159579 
C370     C      0.809060000000     0.163370000000     0.532610000000    -0.00191967 
C371     C      0.814260000000     0.134200000000     0.415920000000    -0.0513302  
C372     C      0.828450000000     0.177950000000     0.375530000000    -0.0527955  
C373     C      0.821160000000     0.156830000000     0.434020000000     0.0632827  
C374     C      0.850020000000     0.170090000000     0.484580000000    -0.0306353  
C375     C      0.822130000000     0.155430000000     0.357440000000     0.0629204  
C376     C      0.803710000000     0.136790000000     0.298910000000    -0.0549451  
C377     C      0.814900000000     0.133450000000     0.378020000000    -0.0541124  
C378     C      0.807920000000     0.141080000000     0.257790000000     0.0966057  
C379     C      0.854880000000     0.159220000000     0.269400000000    -0.0136132  
C380     C      0.828170000000     0.178780000000     0.413510000000    -0.0554761  
C381     C      0.148470000000     0.341290000000     0.487490000000    -0.0326022  
C382     C      0.190250000000     0.369630000000     0.674890000000    -0.0336138  
C383     C      0.148140000000     0.349050000000     0.725860000000     0.00143816 
C384     C      0.192630000000     0.382740000000     0.711350000000     0.00123291 
C385     C      0.166680000000     0.366700000000     0.597680000000    -0.0525892  
C386     C      0.151740000000     0.317130000000     0.578320000000    -0.0519078  
C387     C      0.161170000000     0.348790000000     0.625150000000     0.0625662  
C388     C      0.146920000000     0.337270000000     0.688700000000    -0.0336696  
C389     C      0.157060000000     0.335000000000     0.550840000000     0.0619927  
C390     C      0.177910000000     0.326730000000     0.501300000000    -0.0565645  
C391     C      0.165290000000     0.360150000000     0.561010000000    -0.0541494  
C392     C      0.173490000000     0.313460000000     0.464170000000     0.0999665  
C393     C      0.142380000000     0.328480000000     0.450420000000    -0.000343006
C394     C      0.154300000000     0.323960000000     0.615010000000    -0.0540631  
C395     C      0.244110000000     0.369070000000     0.987460000000    -0.0326437  
C396     C      0.198600000000     0.324340000000     0.171350000000    -0.0321462  
C397     C      0.206660000000     0.367670000000     0.214590000000    -0.00224752 
C398     C      0.202990000000     0.324340000000     0.212300000000    -0.00089891 
C399     C      0.235610000000     0.352680000000     0.102010000000    -0.0528982  
C400     C      0.196590000000     0.349400000000     0.058300000000    -0.0529738  
C401     C      0.214130000000     0.351060000000     0.118410000000     0.0619178  
C402     C      0.202750000000     0.365780000000     0.173360000000    -0.0314921  
C403     C      0.218290000000     0.351490000000     0.041890000000     0.0613856  
C404     C      0.211520000000     0.325480000000     0.989220000000    -0.0540938  
C405     C      0.237580000000     0.352470000000     0.064180000000    -0.0552315  
C406     C      0.208530000000     0.324170000000     0.947310000000     0.0981094  
C407     C      0.241830000000     0.371850000000     0.946500000000     0.00769028 
C408     C      0.194260000000     0.348760000000     0.096170000000    -0.0556191  
C409     C      0.957060000000     0.174490000000     0.213190000000    -0.0333561  
C410     C      0.066150000000     0.284880000000     0.291150000000    -0.0317383  
C411     C      0.097460000000     0.261990000000     0.304790000000    -0.00103717 
C412     C      0.089860000000     0.298990000000     0.314710000000    -0.00190584 
C413     C      0.013510000000     0.220800000000     0.298530000000    -0.052282   
C414     C      0.999480000000     0.232040000000     0.231810000000    -0.0532597  
C415     C      0.030880000000     0.242350000000     0.279470000000     0.0615092  
C416     C      0.073830000000     0.250210000000     0.280850000000    -0.0320949  
C417     C      0.981940000000     0.210730000000     0.251230000000     0.0616568  
C418     C      0.936340000000     0.184570000000     0.261970000000    -0.0513935  
C419     C      0.989460000000     0.204870000000     0.284390000000    -0.0556818  
C420     C      0.910690000000     0.174340000000     0.241550000000     0.0969626  
C421     C      0.930180000000     0.155330000000     0.200030000000     0.00480527 
C422     C      0.023880000000     0.247520000000     0.245370000000    -0.0553104  
C423     C      0.287580000000     0.373750000000     0.386090000000    -0.0324789  
C424     C      0.404200000000     0.469660000000     0.472820000000    -0.0318726  
C425     C      0.429460000000     0.441140000000     0.489980000000    -0.00179725 
C426     C      0.425290000000     0.479560000000     0.501220000000    -0.00169927 
C427     C      0.345060000000     0.416650000000     0.466490000000    -0.0525     
C428     C      0.347310000000     0.426140000000     0.391730000000    -0.0533199  
C429     C      0.368560000000     0.431510000000     0.449860000000     0.0617787  
C430     C      0.408100000000     0.432440000000     0.462020000000    -0.0320767  
C431     C      0.323770000000     0.411380000000     0.408410000000     0.0622996  
C432     C      0.284390000000     0.410820000000     0.398030000000    -0.0558258  
C433     C      0.322820000000     0.406600000000     0.446070000000    -0.0556045  
C434     C      0.261730000000     0.402350000000     0.371970000000     0.0989466  
C435     C      0.266700000000     0.364250000000     0.357690000000     0.000572469
C436     C      0.369580000000     0.436140000000     0.412180000000    -0.055415   
C437     C      0.548470000000     0.998870000000     0.630170000000    -0.0316975  
C438     C      0.550570000000     0.040610000000     0.817060000000    -0.0322398  
C439     C      0.528290000000     0.995280000000     0.862080000000    -0.00153397 
C440     C      0.537240000000     0.040510000000     0.852240000000    -0.000545276
C441     C      0.528940000000     0.013470000000     0.736940000000    -0.0534219  
C442     C      0.575690000000     0.018540000000     0.718450000000    -0.053575   
C443     C      0.545440000000     0.014940000000     0.764530000000     0.061691   
C444     C      0.541600000000     0.997830000000     0.825750000000    -0.0314846  
C445     C      0.559080000000     0.016890000000     0.690820000000     0.061643   
C446     C      0.574320000000     0.044270000000     0.638710000000    -0.0561837  
C447     C      0.535730000000     0.014740000000     0.700440000000    -0.0557296  
C448     C      0.585690000000     0.047690000000     0.600310000000     0.0978434  
C449     C      0.559360000000     0.000910000000     0.592160000000    -0.00290262 
C450     C      0.569130000000     0.017890000000     0.755040000000    -0.0557073  
C451     C      0.485520000000     0.006820000000     0.141760000000    -0.0325205  
C452     C      0.536160000000     0.058770000000     0.322140000000    -0.0318601  
C453     C      0.500580000000     0.015470000000     0.365160000000    -0.00125121 
C454     C      0.534160000000     0.061590000000     0.363140000000    -0.00192389 
C455     C      0.489620000000     0.036360000000     0.251090000000    -0.0525257  
C456     C      0.527630000000     0.035550000000     0.209670000000    -0.0533822  
C457     C      0.510710000000     0.037850000000     0.268600000000     0.061747   
C458     C      0.504200000000     0.014340000000     0.324170000000    -0.0323218  
C459     C      0.506740000000     0.034500000000     0.192140000000     0.0622073  
C460     C      0.501880000000     0.051910000000     0.135060000000    -0.0543652  
C461     C      0.487390000000     0.034330000000     0.213270000000    -0.0558724  
C462     C      0.497300000000     0.047720000000     0.093340000000     0.0981949  
C463     C      0.490470000000     0.002830000000     0.102390000000     0.00848413 
C464     C      0.529500000000     0.036830000000     0.247600000000    -0.0554654  
C465     C      0.756530000000     0.142590000000     0.087680000000    -0.0331378  
C466     C      0.628290000000     0.055570000000     0.022800000000    -0.0320052  
C467     C      0.603440000000     0.085210000000     0.010810000000    -0.00139717 
C468     C      0.599450000000     0.042280000000     0.024160000000    -0.00120109 
C469     C      0.674200000000     0.099370000000     0.078180000000    -0.052322   
C470     C      0.708770000000     0.107170000000     0.022810000000    -0.0530884  
C471     C      0.665690000000     0.093480000000     0.042240000000     0.0619499  
C472     C      0.632120000000     0.096080000000     0.010340000000    -0.031868   
C473     C      0.717180000000     0.112420000000     0.058930000000     0.0617074  
C474     C      0.743700000000     0.098520000000     0.086660000000    -0.0567936  
C475     C      0.699650000000     0.108700000000     0.086600000000    -0.0551876  
C476     C      0.770900000000     0.103560000000     0.090970000000     0.099997   
C477     C      0.784490000000     0.150470000000     0.090250000000     0.000414404
C478     C      0.683240000000     0.097770000000     0.014400000000    -0.0555648  
C479     C      0.233760000000     0.868330000000     0.474880000000    -0.0332652  
C480     C      0.190030000000     0.873050000000     0.659520000000    -0.0318302  
C481     C      0.186440000000     0.827690000000     0.691130000000    -0.00133719 
C482     C      0.174950000000     0.862140000000     0.694500000000    -0.00158672 
C483     C      0.184940000000     0.848400000000     0.571350000000    -0.0527677  
C484     C      0.233640000000     0.889210000000     0.560870000000    -0.0536022  
C485     C      0.199850000000     0.861080000000     0.601560000000     0.0620965  
C486     C      0.201320000000     0.840190000000     0.656520000000    -0.0318603  
C487     C      0.218480000000     0.876900000000     0.530670000000     0.0625853  
C488     C      0.212130000000     0.893190000000     0.473900000000    -0.057672   
C489     C      0.194180000000     0.856040000000     0.536150000000    -0.0554968  
C490     C      0.224980000000     0.905080000000     0.437600000000     0.101269   
C491     C      0.246500000000     0.879770000000     0.438360000000    -0.00298382 
C492     C      0.224560000000     0.881270000000     0.596090000000    -0.0555753  
C493     C      0.171920000000     0.851220000000     0.985460000000    -0.031464   
C494     C      0.181270000000     0.808950000000     0.168350000000    -0.0320378  
C495     C      0.154550000000     0.827030000000     0.214450000000    -2.79071e-05
C496     C      0.190420000000     0.815820000000     0.207570000000     0.00036119 
C497     C      0.189850000000     0.847080000000     0.097620000000    -0.0523111  
C498     C      0.151560000000     0.807170000000     0.058430000000    -0.0520709  
C499     C      0.171010000000     0.826270000000     0.116280000000     0.0627189  
C500     C      0.149130000000     0.820440000000     0.174040000000    -0.0319522  
C501     C      0.170300000000     0.828140000000     0.039730000000     0.0627994  
C502     C      0.190160000000     0.824340000000     0.985670000000    -0.0544847  
C503     C      0.189740000000     0.847990000000     0.059730000000    -0.0551808  
C504     C      0.187540000000     0.820230000000     0.944240000000     0.0972447  
C505     C      0.166500000000     0.848090000000     0.944820000000     8.45771e-05
C506     C      0.151960000000     0.806050000000     0.096420000000    -0.0548674  
C507     C      0.406040000000     0.989500000000     0.940830000000    -0.0330212  
C508     C      0.297620000000     0.890440000000     0.839890000000    -0.0292672  
C509     C      0.264120000000     0.911860000000     0.835090000000     0.000174366
C510     C      0.269330000000     0.872180000000     0.835040000000    -0.0031233  
C511     C      0.329700000000     0.931500000000     0.912200000000    -0.0514251  
C512     C      0.372300000000     0.951010000000     0.867230000000    -0.0527509  
C513     C      0.326590000000     0.927420000000     0.874650000000     0.0634767  
C514     C      0.292860000000     0.927110000000     0.839230000000    -0.0311944  
C515     C      0.375420000000     0.954530000000     0.904960000000     0.0619747  
C516     C      0.405220000000     0.949240000000     0.941730000000    -0.0544382  
C517     C      0.353820000000     0.945000000000     0.927310000000    -0.0547863  
C518     C      0.430190000000     0.962180000000     0.964080000000     0.0976112  
C519     C      0.434440000000     0.005210000000     0.947280000000     0.00901536 
C520     C      0.348070000000     0.937720000000     0.852030000000    -0.0560482  
C521     C      0.822060000000     0.695820000000     0.749560000000    -0.031909   
C522     C      0.853040000000     0.713790000000     0.940870000000    -0.0323643  
C523     C      0.809710000000     0.695800000000     0.989290000000    -0.00188536 
C524     C      0.855840000000     0.726720000000     0.977600000000    -0.00130435 
C525     C      0.834460000000     0.715790000000     0.862590000000    -0.0528486  
C526     C      0.812730000000     0.665680000000     0.840430000000    -0.052968   
C527     C      0.824970000000     0.696720000000     0.889040000000     0.0609008  
C528     C      0.808480000000     0.684550000000     0.951680000000    -0.0320881  
C529     C      0.822510000000     0.684770000000     0.814000000000     0.0612237  
C530     C      0.841790000000     0.671650000000     0.768010000000    -0.0557743  
C531     C      0.833900000000     0.710070000000     0.825690000000    -0.054653   
C532     C      0.837740000000     0.659310000000     0.730240000000     0.097553   
C533     C      0.816990000000     0.684490000000     0.711410000000    -0.002695   
C534     C      0.814440000000     0.671480000000     0.877470000000    -0.054162   
C535     C      0.898760000000     0.683240000000     0.447820000000    -0.0316671  
C536     C      0.887150000000     0.724740000000     0.265210000000    -0.031373   
C537     C      0.854340000000     0.678160000000     0.226130000000    -0.00198664 
C538     C      0.889930000000     0.723890000000     0.223920000000    -0.00197762 
C539     C      0.903290000000     0.701460000000     0.334580000000    -0.0518347  
C540     C      0.866510000000     0.700410000000     0.380990000000    -0.0529457  
C541     C      0.881620000000     0.700360000000     0.319700000000     0.0618476  
C542     C      0.853710000000     0.681150000000     0.267360000000    -0.0315488  
C543     C      0.887790000000     0.700650000000     0.395870000000     0.0643024  
C544     C      0.906370000000     0.725790000000     0.449660000000    -0.0520689  
C545     C      0.906630000000     0.702020000000     0.372250000000    -0.0558158  
C546     C      0.906480000000     0.725720000000     0.491920000000     0.0985979  
C547     C      0.893550000000     0.678470000000     0.488490000000     0.00958229 
C548     C      0.863560000000     0.700670000000     0.343280000000    -0.0534758  
C549     C      0.759330000000     0.622370000000     0.528720000000    -0.0334731  
C550     C      0.626830000000     0.592730000000     0.525510000000    -0.0320551  
C551     C      0.604550000000     0.540500000000     0.501470000000    -0.0012942  
C552     C      0.600490000000     0.579860000000     0.508230000000    -0.00145847 
C553     C      0.686020000000     0.606800000000     0.491830000000    -0.0525534  
C554     C      0.702360000000     0.612450000000     0.564110000000    -0.0531213  
C555     C      0.668160000000     0.596410000000     0.519790000000     0.061926   
C556     C      0.630520000000     0.555330000000     0.519340000000    -0.0319103  
C557     C      0.720240000000     0.622630000000     0.536070000000     0.0617628  
C558     C      0.759860000000     0.662110000000     0.535820000000    -0.0536731  
C559     C      0.711830000000     0.619770000000     0.499750000000    -0.0557476  
C560     C      0.789060000000     0.675420000000     0.540990000000     0.0966602  
C561     C      0.784540000000     0.631220000000     0.547690000000     0.0101476  
C562     C      0.676490000000     0.599380000000     0.556150000000    -0.0556757  
C563     C      0.064670000000     0.792560000000     0.805290000000    -0.0332436  
C564     C      0.966120000000     0.712220000000     0.674990000000    -0.0305464  
C565     C      0.939320000000     0.740580000000     0.670210000000     0.000460149
C566     C      0.938370000000     0.698240000000     0.663450000000    -0.000912799
C567     C      0.994270000000     0.739000000000     0.756510000000    -0.0526773  
C568     C      0.040270000000     0.766630000000     0.719900000000    -0.0520344  
C569     C      0.994310000000     0.742680000000     0.718920000000     0.0630601  
C570     C      0.966920000000     0.751770000000     0.681780000000    -0.0312584  
C571     C      0.040210000000     0.763390000000     0.757650000000     0.0617161  
C572     C      0.070430000000     0.757030000000     0.792150000000    -0.0539705  
C573     C      0.016970000000     0.749140000000     0.775800000000    -0.0548392  
C574     C      0.096090000000     0.770120000000     0.812900000000     0.0977104  
C575     C      0.092060000000     0.810250000000     0.816020000000     0.00988409 
C576     C      0.017540000000     0.756290000000     0.700540000000    -0.0556884  
H1       H      0.733950000000     0.998190000000     0.777310000000     0.0413188  
H2       H      0.796800000000     0.077150000000     0.750850000000     0.0363124  
H3       H      0.780950000000     0.048710000000     0.642750000000     0.0503757  
H4       H      0.754980000000     0.922150000000     0.761550000000     0.0370797  
H5       H      0.787210000000     0.103770000000     0.712200000000     0.0681853  
H6       H      0.705950000000     0.952860000000     0.746780000000     0.035046   
H7       H      0.779400000000     0.966700000000     0.774010000000     0.0351259  
H8       H      0.686940000000     0.913250000000     0.784620000000     0.0387079  
H9       H      0.751260000000     0.039880000000     0.750530000000     0.046119   
H10      H      0.819580000000     0.121740000000     0.727830000000     0.162688   
H11      H      0.779980000000     0.982030000000     0.705280000000     0.0449529  
H12      H      0.822360000000     0.081480000000     0.721500000000     0.0448429  
H13      H      0.760280000000     0.926310000000     0.809740000000     0.0369281  
H14      H      0.780390000000     0.087730000000     0.641800000000     0.0335311  
H15      H      0.716120000000     0.957240000000     0.793750000000     0.0372662  
H16      H      0.758060000000     0.965160000000     0.809060000000     0.0395691  
H17      H      0.799300000000     0.024700000000     0.681240000000     0.0443751  
H18      H      0.813090000000     0.063940000000     0.659440000000     0.0599291  
H19      H      0.702500000000     0.912180000000     0.743960000000     0.0339332  
H20      H      0.913850000000     0.323000000000     0.557760000000     0.041154   
H21      H      0.924610000000     0.412240000000     0.584880000000     0.036284   
H22      H      0.993070000000     0.411780000000     0.571170000000     0.0450596  
H23      H      0.867940000000     0.272810000000     0.672110000000     0.0373678  
H24      H      0.945720000000     0.442120000000     0.538870000000     0.0373183  
H25      H      0.940860000000     0.305430000000     0.621530000000     0.0359379  
H26      H      0.870760000000     0.303840000000     0.629100000000     0.0356388  
H27      H      0.918390000000     0.258210000000     0.626010000000     0.039851   
H28      H      0.935750000000     0.366930000000     0.536420000000     0.0456307  
H29      H      0.951370000000     0.460680000000     0.578920000000     0.0413358  
H30      H      0.926810000000     0.348860000000     0.668910000000     0.0465904  
H31      H      0.949270000000     0.428380000000     0.617940000000     0.0511718  
H32      H      0.848050000000     0.256580000000     0.634000000000     0.0393283  
H33      H      0.014520000000     0.452530000000     0.558700000000     0.0349647  
H34      H      0.917050000000     0.289420000000     0.587090000000     0.0376516  
H35      H      0.876590000000     0.288530000000     0.591480000000     0.037686   
H36      H      0.948180000000     0.392640000000     0.647730000000     0.0458105  
H37      H      0.986800000000     0.418420000000     0.615800000000     0.0546093  
H38      H      0.917170000000     0.273830000000     0.666540000000     0.0359921  
H39      H      0.122630000000     0.719210000000     0.454530000000     0.042847   
H40      H      0.040100000000     0.631690000000     0.418150000000     0.0380158  
H41      H      0.107770000000     0.630650000000     0.438290000000     0.048793   
H42      H      0.125960000000     0.774950000000     0.349540000000     0.0390452  
H43      H      0.027530000000     0.600260000000     0.462530000000     0.0418628  
H44      H      0.164910000000     0.733500000000     0.384110000000     0.0363169  
H45      H      0.102160000000     0.744720000000     0.394560000000     0.0373648  
H46      H      0.193650000000     0.781160000000     0.379470000000     0.0370144  
H47      H      0.098030000000     0.674800000000     0.473460000000     0.0514542  
H48      H      0.017600000000     0.582860000000     0.421020000000     0.0416616  
H49      H      0.107840000000     0.696480000000     0.342130000000     0.0472359  
H50      H      0.050010000000     0.615920000000     0.386430000000     0.0495472  
H51      H      0.132800000000     0.792470000000     0.390900000000     0.0402228  
H52      H      0.086870000000     0.590140000000     0.452850000000     0.0405423  
H53      H      0.162900000000     0.751600000000     0.421240000000     0.0372899  
H54      H      0.127460000000     0.757720000000     0.427340000000     0.0374017  
H55      H      0.083770000000     0.652280000000     0.360800000000     0.0457747  
H56      H      0.095520000000     0.624120000000     0.393190000000     0.0554949  
H57      H      0.174580000000     0.765590000000     0.340620000000     0.0383636  
H58      H      0.628690000000     0.708290000000     0.953770000000     0.0417503  
H59      H      0.548430000000     0.622970000000     0.921780000000     0.0379686  
H60      H      0.614400000000     0.617410000000     0.933120000000     0.0454643  
H61      H      0.623020000000     0.759940000000     0.848820000000     0.0370073  
H62      H      0.536800000000     0.591690000000     0.966080000000     0.0479917  
H63      H      0.670670000000     0.728700000000     0.883970000000     0.0353559  
H64      H      0.601290000000     0.728220000000     0.893380000000     0.0356741  
H65      H      0.693640000000     0.776680000000     0.881100000000     0.0372769  
H66      H      0.606360000000     0.663760000000     0.972430000000     0.0487705  
H67      H      0.523640000000     0.574240000000     0.925190000000     0.0436002  
H68      H      0.613060000000     0.685720000000     0.841370000000     0.04597    
H69      H      0.555370000000     0.606100000000     0.887860000000     0.0497497  
H70      H      0.625410000000     0.776150000000     0.890410000000     0.0377491  
H71      H      0.592280000000     0.576700000000     0.946450000000     0.0352714  
H72      H      0.665020000000     0.744050000000     0.921670000000     0.0367048  
H73      H      0.625770000000     0.743810000000     0.926970000000     0.0369843  
H74      H      0.590950000000     0.641370000000     0.859830000000     0.0448731  
H75      H      0.600510000000     0.611880000000     0.889080000000     0.0541301  
H76      H      0.675890000000     0.760320000000     0.841630000000     0.0374203  
H77      H      0.288810000000     0.007130000000     0.264870000000     0.0456148  
H78      H      0.347540000000     0.060150000000     0.155540000000     0.0405964  
H79      H      0.278100000000     0.059440000000     0.164630000000     0.0520144  
H80      H      0.262220000000     0.915330000000     0.232820000000     0.0378394  
H81      H      0.363560000000     0.103050000000     0.158080000000     0.0460891  
H82      H      0.231510000000     0.965690000000     0.236980000000     0.0390815  
H83      H      0.296670000000     0.957880000000     0.233270000000     0.0374865  
H84      H      0.211340000000     0.929460000000     0.281340000000     0.047629   
H85      H      0.309350000000     0.048940000000     0.236120000000     0.0577094  
H86      H      0.359920000000     0.098540000000     0.110000000000     0.0526925  
H87      H      0.271080000000     0.972250000000     0.158960000000     0.0473751  
H88      H      0.328720000000     0.055780000000     0.115630000000     0.0505778  
H89      H      0.275920000000     0.921320000000     0.277400000000     0.0402411  
H90      H      0.294910000000     0.098280000000     0.143500000000     0.0434037  
H91      H      0.249540000000     0.969580000000     0.277750000000     0.0437176  
H92      H      0.286820000000     0.965160000000     0.275590000000     0.0412355  
H93      H      0.292280000000     0.013970000000     0.130240000000     0.0465406  
H94      H      0.284870000000     0.048420000000     0.123630000000     0.0563521  
H95      H      0.214700000000     0.921110000000     0.235820000000     0.0376294  
H96      H      0.442320000000     0.360780000000     0.052270000000     0.0452555  
H97      H      0.449820000000     0.304190000000     0.152970000000     0.0367211  
H98      H      0.375890000000     0.291970000000     0.137290000000     0.0459176  
H99      H      0.510920000000     0.445170000000     0.099360000000     0.0345856  
H100     H      0.428800000000     0.261470000000     0.140350000000     0.0396173  
H101     H      0.430280000000     0.405010000000     0.092330000000     0.0370383  
H102     H      0.497850000000     0.401330000000     0.090800000000     0.0368608  
H103     H      0.451380000000     0.444890000000     0.055370000000     0.0425752  
H104     H      0.421120000000     0.316570000000     0.072130000000     0.0476543  
H105     H      0.427790000000     0.261340000000     0.188910000000     0.0426709  
H106     H      0.453340000000     0.384860000000     0.164250000000     0.0455838  
H107     H      0.430530000000     0.301190000000     0.191750000000     0.0483243  
H108     H      0.519250000000     0.441060000000     0.054120000000     0.0444508  
H109     H      0.358770000000     0.251660000000     0.152470000000     0.0353358  
H110     H      0.442780000000     0.401750000000     0.049510000000     0.0431142  
H111     H      0.482030000000     0.399750000000     0.048580000000     0.0446905  
H112     H      0.431720000000     0.340750000000     0.184110000000     0.0442445  
H113     H      0.390310000000     0.302170000000     0.180820000000     0.0555491  
H114     H      0.464090000000     0.447820000000     0.100310000000     0.0372264  
H115     H      0.688120000000     0.872220000000     0.640410000000     0.0409154  
H116     H      0.731280000000     0.881440000000     0.523910000000     0.0377701  
H117     H      0.667210000000     0.867360000000     0.479830000000     0.0471587  
H118     H      0.684820000000     0.797000000000     0.707800000000     0.035705   
H119     H      0.724050000000     0.896400000000     0.465390000000     0.0382981  
H120     H      0.636760000000     0.821240000000     0.669030000000     0.0359639  
H121     H      0.709070000000     0.827400000000     0.660350000000     0.0364257  
H122     H      0.638390000000     0.818850000000     0.736930000000     0.0390443  
H123     H      0.695570000000     0.888730000000     0.578080000000     0.046273   
H124     H      0.741090000000     0.879840000000     0.458820000000     0.041343   
H125     H      0.665290000000     0.798010000000     0.598980000000     0.0483807  
H126     H      0.716820000000     0.849580000000     0.507400000000     0.0540411  
H127     H      0.711410000000     0.824140000000     0.727450000000     0.0396766  
H128     H      0.662590000000     0.837210000000     0.434810000000     0.0390206  
H129     H      0.663410000000     0.848560000000     0.688810000000     0.0378944  
H130     H      0.706830000000     0.852190000000     0.683630000000     0.0395535  
H131     H      0.673920000000     0.814820000000     0.536940000000     0.0660217  
H132     H      0.652800000000     0.837670000000     0.501670000000     0.0553385  
H133     H      0.639630000000     0.793560000000     0.714050000000     0.0354835  
H134     H      0.681830000000     0.857130000000     0.058700000000     0.0417782  
H135     H      0.709000000000     0.838830000000     0.154400000000     0.0351031  
H136     H      0.757780000000     0.916650000000     0.175680000000     0.0524449  
H137     H      0.748380000000     0.897350000000     0.947680000000     0.0367013  
H138     H      0.697890000000     0.842740000000     0.213760000000     0.0437651  
H139     H      0.686930000000     0.891440000000     0.007240000000     0.0368001  
H140     H      0.747190000000     0.875500000000     0.003470000000     0.0349188  
H141     H      0.676700000000     0.878180000000     0.941460000000     0.0391838  
H142     H      0.687560000000     0.855900000000     0.123800000000     0.0455884  
H143     H      0.719710000000     0.831540000000     0.219580000000     0.0408236  
H144     H      0.760190000000     0.914410000000     0.047490000000     0.046475   
H145     H      0.741700000000     0.850940000000     0.164080000000     0.0507821  
H146     H      0.739480000000     0.865160000000     0.938250000000     0.0389604  
H147     H      0.760030000000     0.909420000000     0.234350000000     0.0448375  
H148     H      0.680260000000     0.859720000000     0.997800000000     0.037591   
H149     H      0.715220000000     0.850760000000     0.995160000000     0.0395847  
H150     H      0.766790000000     0.911650000000     0.111510000000     0.0440221  
H151     H      0.770830000000     0.897020000000     0.163750000000     0.0550225  
H152     H      0.706590000000     0.906170000000     0.948500000000     0.0362168  
H153     H      0.811080000000     0.764460000000     0.247830000000     0.0418937  
H154     H      0.806460000000     0.840490000000     0.305730000000     0.0436521  
H155     H      0.738150000000     0.770200000000     0.308810000000     0.0549234  
H156     H      0.824230000000     0.779410000000     0.112030000000     0.0360719  
H157     H      0.787200000000     0.832980000000     0.366450000000     0.0390005  
H158     H      0.765870000000     0.732880000000     0.181940000000     0.0363454  
H159     H      0.835360000000     0.801380000000     0.170230000000     0.0376987  
H160     H      0.781550000000     0.710630000000     0.141990000000     0.0394396  
H161     H      0.799700000000     0.779960000000     0.302070000000     0.0478881  
H162     H      0.788190000000     0.859960000000     0.345830000000     0.0491597  
H163     H      0.774910000000     0.794730000000     0.179850000000     0.0478309  
H164     H      0.779020000000     0.839410000000     0.285300000000     0.0577724  
H165     H      0.852070000000     0.780270000000     0.129920000000     0.0407658  
H166     H      0.749380000000     0.792600000000     0.367080000000     0.0304159  
H167     H      0.794140000000     0.734140000000     0.199410000000     0.0393373  
H168     H      0.835910000000     0.775320000000     0.192350000000     0.0395924  
H169     H      0.763730000000     0.810450000000     0.234140000000     0.0521714  
H170     H      0.736940000000     0.796190000000     0.287410000000     0.061878   
H171     H      0.780400000000     0.736100000000     0.119480000000     0.0350758  
H172     H      0.628780000000     0.957660000000     0.438070000000     0.0420099  
H173     H      0.625480000000     0.898380000000     0.328920000000     0.0370143  
H174     H      0.696460000000     0.961640000000     0.353730000000     0.0477296  
H175     H      0.558670000000     0.973040000000     0.396200000000     0.0357773  
H176     H      0.647580000000     0.877310000000     0.337570000000     0.0398605  
H177     H      0.640470000000     0.014760000000     0.399800000000     0.0378752  
H178     H      0.573470000000     0.943690000000     0.403690000000     0.0354065  
H179     H      0.619480000000     0.033290000000     0.438450000000     0.0415079  
H180     H      0.651040000000     0.936170000000     0.415590000000     0.0469118  
H181     H      0.652190000000     0.883320000000     0.289860000000     0.0447428  
H182     H      0.617420000000     0.973770000000     0.327690000000     0.0469535  
H183     H      0.645710000000     0.917970000000     0.292940000000     0.0477712  
H184     H      0.552820000000     0.962340000000     0.442420000000     0.0385844  
H185     H      0.716220000000     0.940630000000     0.339820000000     0.0369297  
H186     H      0.628610000000     0.999100000000     0.442800000000     0.0395499  
H187     H      0.590160000000     0.958430000000     0.445080000000     0.0374826  
H188     H      0.640280000000     0.952990000000     0.305260000000     0.0457559  
H189     H      0.683680000000     0.958350000000     0.309110000000     0.0588508  
H190     H      0.607140000000     0.024510000000     0.393240000000     0.0379714  
H191     H      0.015880000000     0.511220000000     0.776390000000     0.0455757  
H192     H      0.991870000000     0.556550000000     0.664940000000     0.0378985  
H193     H      0.061750000000     0.557770000000     0.668830000000     0.049989   
H194     H      0.982640000000     0.535300000000     0.881840000000     0.0360963  
H195     H      0.989400000000     0.539930000000     0.608170000000     0.0426638  
H196     H      0.055510000000     0.572390000000     0.830050000000     0.0371441  
H197     H      0.978390000000     0.515560000000     0.823570000000     0.0380341  
H198     H      0.056330000000     0.563110000000     0.896050000000     0.0413403  
H199     H      0.018880000000     0.514830000000     0.710000000000     0.0574614  
H200     H      0.005170000000     0.572610000000     0.596790000000     0.0430296  
H201     H      0.023750000000     0.585150000000     0.783220000000     0.0465884  
H202     H      0.020970000000     0.585180000000     0.655550000000     0.0457798  
H203     H      0.979260000000     0.504880000000     0.889710000000     0.0456757  
H204     H      0.061440000000     0.553670000000     0.608710000000     0.0433214  
H205     H      0.046480000000     0.539960000000     0.838560000000     0.0433646  
H206     H      0.002020000000     0.507110000000     0.834820000000     0.0444209  
H207     H      0.028810000000     0.589570000000     0.717180000000     0.0445389  
H208     H      0.061050000000     0.586540000000     0.666900000000     0.0569739  
H209     H      0.035830000000     0.575450000000     0.885430000000     0.0381972  
H210     H      0.050740000000     0.509790000000     0.296890000000     0.0472162  
H211     H      0.001660000000     0.456290000000     0.162850000000     0.035678   
H212     H      0.036070000000     0.533730000000     0.189770000000     0.0511527  
H213     H      0.006710000000     0.454640000000     0.396290000000     0.0349755  
H214     H      0.029250000000     0.477770000000     0.112670000000     0.0355946  
H215     H      0.977350000000     0.489760000000     0.328520000000     0.036445   
H216     H      0.036170000000     0.472720000000     0.345970000000     0.0378317  
H217     H      0.974710000000     0.495790000000     0.394420000000     0.040936   
H218     H      0.056610000000     0.514580000000     0.231410000000     0.0474258  
H219     H      0.997470000000     0.466350000000     0.097890000000     0.0420296  
H220     H      0.971480000000     0.456410000000     0.281010000000     0.0441196  
H221     H      0.984640000000     0.473220000000     0.156760000000     0.0403484  
H222     H      0.035580000000     0.480660000000     0.412940000000     0.0446326  
H223     H      0.053720000000     0.532980000000     0.132180000000     0.0339986  
H224     H      0.007320000000     0.513730000000     0.346270000000     0.051793   
H225     H      0.041770000000     0.503970000000     0.356520000000     0.0516406  
H226     H      0.976790000000     0.463160000000     0.215830000000     0.0413146  
H227     H      0.004080000000     0.516910000000     0.173530000000     0.0590418  
H228     H      0.968050000000     0.464400000000     0.383620000000     0.0351393  
H229     H      0.944430000000     0.601980000000     0.994320000000     0.0426711  
H230     H      0.871730000000     0.608120000000     0.063330000000     0.0353923  
H231     H      0.943680000000     0.673700000000     0.064800000000     0.0593547  
H232     H      0.953160000000     0.535680000000     0.066500000000     0.0442398  
H233     H      0.864730000000     0.641080000000     0.041120000000     0.0353309  
H234     H      0.994050000000     0.615670000000     0.050750000000     0.0395417  
H235     H      0.923970000000     0.547710000000     0.042390000000     0.0360736  
H236     H      0.016740000000     0.593460000000     0.028400000000     0.0464867  
H237     H      0.922920000000     0.626790000000     0.998770000000     0.047035   
H238     H      0.851850000000     0.632590000000     0.086010000000     0.0398914  
H239     H      0.942290000000     0.594590000000     0.111090000000     0.0484444  
H240     H      0.884790000000     0.624280000000     0.105670000000     0.0405647  
H241     H      0.946390000000     0.525220000000     0.020170000000     0.0408457  
H242     H      0.916370000000     0.688920000000     0.045370000000     0.0306563  
H243     H      0.983330000000     0.600760000000     0.007000000000     0.0392771  
H244     H      0.942830000000     0.561450000000     0.002170000000     0.0379806  
H245     H      0.920830000000     0.619310000000     0.115610000000     0.04395    
H246     H      0.926870000000     0.660950000000     0.106590000000     0.0635599  
H247     H      0.002280000000     0.583290000000     0.072250000000     0.0538263  
H248     H      0.366560000000     0.208800000000     0.843130000000     0.0413511  
H249     H      0.329310000000     0.174660000000     0.967450000000     0.0399662  
H250     H      0.397890000000     0.224780000000     0.997270000000     0.0478059  
H251     H      0.365730000000     0.139180000000     0.764790000000     0.0367628  
H252     H      0.342720000000     0.198840000000     0.024400000000     0.0389902  
H253     H      0.417430000000     0.207060000000     0.812980000000     0.0368815  
H254     H      0.342500000000     0.144980000000     0.814250000000     0.0370578  
H255     H      0.417310000000     0.207490000000     0.745020000000     0.0398053  
H256     H      0.362530000000     0.217580000000     0.907200000000     0.0469679  
H257     H      0.326510000000     0.165710000000     0.033860000000     0.0499964  
H258     H      0.386710000000     0.153480000000     0.876280000000     0.0490771  
H259     H      0.344800000000     0.157240000000     0.979680000000     0.0577345  
H260     H      0.341290000000     0.144260000000     0.746450000000     0.0403955  
H261     H      0.406540000000     0.200450000000     0.039700000000     0.0384278  
H262     H      0.392600000000     0.211630000000     0.794380000000     0.039141   
H263     H      0.347640000000     0.174380000000     0.795280000000     0.0394526  
H264     H      0.381640000000     0.161560000000     0.940190000000     0.0660401  
H265     H      0.409040000000     0.207770000000     0.971830000000     0.055877   
H266     H      0.412990000000     0.178530000000     0.763820000000     0.0359565  
H267     H      0.361920000000     0.229760000000     0.417990000000     0.0432911  
H268     H      0.395610000000     0.181040000000     0.327340000000     0.0382009  
H269     H      0.321350000000     0.169260000000     0.319230000000     0.0492307  
H270     H      0.394660000000     0.241900000000     0.541530000000     0.0399839  
H271     H      0.396200000000     0.190130000000     0.266180000000     0.0420318  
H272     H      0.318880000000     0.181430000000     0.472900000000     0.0392187  
H273     H      0.397310000000     0.219040000000     0.492590000000     0.0469842  
H274     H      0.318050000000     0.199470000000     0.537430000000     0.0321851  
H275     H      0.362810000000     0.220250000000     0.353240000000     0.0525947  
H276     H      0.385850000000     0.157280000000     0.264140000000     0.0436332  
H277     H      0.357310000000     0.159380000000     0.447050000000     0.0598842  
H278     H      0.369120000000     0.149590000000     0.323080000000     0.0468273  
H279     H      0.370110000000     0.245580000000     0.520860000000     0.0303581  
H280     H      0.321700000000     0.164900000000     0.259300000000     0.041515   
H281     H      0.334390000000     0.215200000000     0.477950000000     0.036915   
H282     H      0.388110000000     0.239060000000     0.469580000000     0.0332691  
H283     H      0.356710000000     0.149150000000     0.382570000000     0.0462413  
H284     H      0.326090000000     0.143290000000     0.328380000000     0.0574819  
H285     H      0.324790000000     0.174200000000     0.533810000000     0.0530162  
H286     H      0.472100000000     0.094240000000     0.602340000000     0.0419077  
H287     H      0.456820000000     0.167840000000     0.568370000000     0.0362504  
H288     H      0.389120000000     0.100950000000     0.592820000000     0.0450114  
H289     H      0.520610000000     0.095590000000     0.487500000000     0.0381951  
H290     H      0.436920000000     0.178680000000     0.614240000000     0.0369966  
H291     H      0.447930000000     0.047430000000     0.541380000000     0.0355362  
H292     H      0.512930000000     0.119530000000     0.531350000000     0.0365356  
H293     H      0.476120000000     0.027730000000     0.536340000000     0.0383733  
H294     H      0.448520000000     0.114990000000     0.622640000000     0.0458616  
H295     H      0.431090000000     0.190370000000     0.572960000000     0.0405435  
H296     H      0.453870000000     0.100520000000     0.490920000000     0.0464867  
H297     H      0.430910000000     0.157580000000     0.536960000000     0.0514702  
H298     H      0.539910000000     0.098650000000     0.525990000000     0.0470338  
H299     H      0.367790000000     0.121120000000     0.601020000000     0.0341656  
H300     H      0.473180000000     0.058180000000     0.574130000000     0.0377451  
H301     H      0.510020000000     0.098950000000     0.568360000000     0.0401425  
H302     H      0.430530000000     0.121310000000     0.510990000000     0.0458971  
H303     H      0.393320000000     0.109760000000     0.546210000000     0.0541568  
H304     H      0.471220000000     0.040560000000     0.495440000000     0.0368883  
H305     H      0.126150000000     0.417750000000     0.968380000000     0.041415   
H306     H      0.115020000000     0.496570000000     0.960740000000     0.0359686  
H307     H      0.047100000000     0.427780000000     0.945360000000     0.0496665  
H308     H      0.175960000000     0.425340000000     0.849930000000     0.0378455  
H309     H      0.086360000000     0.497580000000     0.004230000000     0.0376268  
H310     H      0.103090000000     0.378260000000     0.902030000000     0.0361658  
H311     H      0.170980000000     0.448500000000     0.898360000000     0.0354504  
H312     H      0.128520000000     0.356150000000     0.891730000000     0.0398408  
H313     H      0.102750000000     0.437380000000     0.993580000000     0.045721   
H314     H      0.090560000000     0.518960000000     0.968160000000     0.0415415  
H315     H      0.117020000000     0.439580000000     0.860410000000     0.046584   
H316     H      0.094600000000     0.492760000000     0.922910000000     0.0411322  
H317     H      0.195430000000     0.425710000000     0.886680000000     0.0376242  
H318     H      0.033220000000     0.447050000000     0.986900000000     0.0321971  
H319     H      0.127990000000     0.385490000000     0.934420000000     0.0370385  
H320     H      0.166580000000     0.425330000000     0.932170000000     0.0376086  
H321     H      0.094610000000     0.459990000000     0.885480000000     0.0432557  
H322     H      0.057170000000     0.452510000000     0.912350000000     0.0563895  
H323     H      0.125470000000     0.372490000000     0.853420000000     0.0371125  
H324     H      0.304130000000     0.259900000000     0.777240000000     0.0424373  
H325     H      0.290960000000     0.338370000000     0.763500000000     0.0366455  
H326     H      0.224140000000     0.267440000000     0.763330000000     0.0511011  
H327     H      0.353390000000     0.265240000000     0.662010000000     0.0368123  
H328     H      0.267380000000     0.343130000000     0.810710000000     0.043843   
H329     H      0.277160000000     0.220130000000     0.706130000000     0.036907   
H330     H      0.347840000000     0.287510000000     0.711130000000     0.0355259  
H331     H      0.299770000000     0.195610000000     0.694710000000     0.0391951  
H332     H      0.281350000000     0.279860000000     0.803570000000     0.0504329  
H333     H      0.264390000000     0.359200000000     0.772140000000     0.0405973  
H334     H      0.290650000000     0.278640000000     0.669590000000     0.0463894  
H335     H      0.266740000000     0.330950000000     0.729890000000     0.0401701  
H336     H      0.369900000000     0.262120000000     0.700140000000     0.0376675  
H337     H      0.211160000000     0.287000000000     0.804650000000     0.0437672  
H338     H      0.300110000000     0.224060000000     0.740200000000     0.0377709  
H339     H      0.340260000000     0.262460000000     0.743190000000     0.0371547  
H340     H      0.268000000000     0.298540000000     0.695670000000     0.0432178  
H341     H      0.230430000000     0.289730000000     0.727650000000     0.0555329  
H342     H      0.300620000000     0.215280000000     0.658020000000     0.0377216  
H343     H      0.533800000000     0.522770000000     0.732300000000     0.0431024  
H344     H      0.462680000000     0.481290000000     0.840970000000     0.0375665  
H345     H      0.525790000000     0.470270000000     0.837650000000     0.0489718  
H346     H      0.477080000000     0.503100000000     0.625650000000     0.0356675  
H347     H      0.475560000000     0.494780000000     0.899090000000     0.0428722  
H348     H      0.513230000000     0.464800000000     0.676520000000     0.035212   
H349     H      0.491660000000     0.520570000000     0.684820000000     0.0359814  
H350     H      0.524960000000     0.476530000000     0.610790000000     0.0370696  
H351     H      0.531530000000     0.517910000000     0.798630000000     0.0577761  
H352     H      0.456790000000     0.461910000000     0.908440000000     0.0435739  
H353     H      0.465090000000     0.451290000000     0.721630000000     0.0448621  
H354     H      0.458880000000     0.450580000000     0.848820000000     0.0439371  
H355     H      0.504960000000     0.533050000000     0.619230000000     0.0391015  
H356     H      0.529790000000     0.474580000000     0.897700000000     0.0425698  
H357     H      0.536150000000     0.497560000000     0.669590000000     0.0386416  
H358     H      0.523940000000     0.529450000000     0.674420000000     0.0374775  
H359     H      0.463810000000     0.445600000000     0.787660000000     0.0434494  
H360     H      0.494480000000     0.443920000000     0.839480000000     0.0561083  
H361     H      0.491780000000     0.461740000000     0.620330000000     0.0368828  
H362     H      0.566350000000     0.562040000000     0.294650000000     0.0417911  
H363     H      0.570370000000     0.530540000000     0.169520000000     0.0351146  
H364     H      0.527670000000     0.568020000000     0.166240000000     0.0538112  
H365     H      0.502430000000     0.483410000000     0.368450000000     0.0360827  
H366     H      0.584870000000     0.560520000000     0.118750000000     0.037359   
H367     H      0.514580000000     0.554240000000     0.328880000000     0.0366398  
H368     H      0.533070000000     0.496260000000     0.319990000000     0.0346887  
H369     H      0.515270000000     0.551460000000     0.397270000000     0.039788   
H370     H      0.577540000000     0.573110000000     0.230510000000     0.0459827  
H371     H      0.570910000000     0.528720000000     0.102290000000     0.0396824  
H372     H      0.494100000000     0.499980000000     0.262280000000     0.0454241  
H373     H      0.538800000000     0.513550000000     0.150990000000     0.0396163  
H374     H      0.532790000000     0.492590000000     0.387960000000     0.0378011  
H375     H      0.559850000000     0.582540000000     0.118720000000     0.028633   
H376     H      0.543980000000     0.558950000000     0.347520000000     0.0381717  
H377     H      0.554590000000     0.525390000000     0.342430000000     0.0380358  
H378     H      0.505840000000     0.510190000000     0.198170000000     0.0431381  
H379     H      0.513040000000     0.536250000000     0.148690000000     0.0599752  
H380     H      0.490080000000     0.524410000000     0.375480000000     0.0355463  
H381     H      0.856360000000     0.186550000000     0.954130000000     0.0417337  
H382     H      0.905520000000     0.215790000000     0.818890000000     0.0358951  
H383     H      0.831080000000     0.155290000000     0.835180000000     0.0486839  
H384     H      0.922160000000     0.187840000000     0.033780000000     0.0351011  
H385     H      0.879410000000     0.223070000000     0.777100000000     0.0343602  
H386     H      0.866990000000     0.130880000000     0.969830000000     0.036917   
H387     H      0.909430000000     0.209580000000     0.990540000000     0.0357997  
H388     H      0.863490000000     0.121800000000     0.036400000000     0.0437953  
H389     H      0.848830000000     0.194790000000     0.891650000000     0.0458616  
H390     H      0.898160000000     0.213600000000     0.751390000000     0.037925   
H391     H      0.908130000000     0.163060000000     0.915330000000     0.0457199  
H392     H      0.896050000000     0.185320000000     0.799160000000     0.0421716  
H393     H      0.906340000000     0.201590000000     0.057650000000     0.0392644  
H394     H      0.826980000000     0.179780000000     0.787960000000     0.0323532  
H395     H      0.851710000000     0.145400000000     0.993740000000     0.0409779  
H396     H      0.877190000000     0.192510000000     0.006750000000     0.0391312  
H397     H      0.898800000000     0.169030000000     0.852680000000     0.0427336  
H398     H      0.853690000000     0.150420000000     0.810340000000     0.0599027  
H399     H      0.895730000000     0.138350000000     0.020590000000     0.0375327  
H400     H      0.834190000000     0.196650000000     0.426800000000     0.0414354  
H401     H      0.864980000000     0.168840000000     0.325730000000     0.0452769  
H402     H      0.786670000000     0.137970000000     0.306570000000     0.0518742  
H403     H      0.846200000000     0.144830000000     0.528180000000     0.0525582  
H404     H      0.861130000000     0.179390000000     0.263820000000     0.0436709  
H405     H      0.789820000000     0.159010000000     0.481460000000     0.0374499  
H406     H      0.860690000000     0.162810000000     0.468970000000     0.0386515  
H407     H      0.801410000000     0.174270000000     0.546550000000     0.0412022  
H408     H      0.834530000000     0.195110000000     0.360130000000     0.04591    
H409     H      0.872190000000     0.156620000000     0.264270000000     0.0953241  
H410     H      0.809320000000     0.117290000000     0.431380000000     0.0507694  
H411     H      0.845640000000     0.135490000000     0.317350000000     0.0571709  
H412     H      0.871460000000     0.176620000000     0.533780000000     0.042702   
H413     H      0.808760000000     0.159370000000     0.251840000000     0.0341605  
H414     H      0.818650000000     0.188720000000     0.486670000000     0.0367223  
H415     H      0.859270000000     0.190800000000     0.479900000000     0.0380535  
H416     H      0.810590000000     0.115920000000     0.364980000000     0.0476884  
H417     H      0.800080000000     0.117530000000     0.305660000000     0.0624027  
H418     H      0.795760000000     0.143070000000     0.537990000000     0.0485319  
H419     H      0.150600000000     0.309620000000     0.635070000000     0.0464948  
H420     H      0.131600000000     0.342020000000     0.497360000000     0.0366752  
H421     H      0.182970000000     0.316290000000     0.521340000000     0.0514116  
H422     H      0.139770000000     0.361480000000     0.723180000000     0.0347764  
H423     H      0.124870000000     0.309850000000     0.453070000000     0.0348025  
H424     H      0.202660000000     0.384220000000     0.654880000000     0.0364012  
H425     H      0.127050000000     0.327890000000     0.678780000000     0.0378239  
H426     H      0.212570000000     0.391540000000     0.720750000000     0.0402365  
H427     H      0.145970000000     0.297850000000     0.571160000000     0.0474776  
H428     H      0.138090000000     0.339840000000     0.431090000000     0.0412452  
H429     H      0.172510000000     0.386000000000     0.604830000000     0.0454498  
H430     H      0.164410000000     0.360890000000     0.483930000000     0.0465426  
H431     H      0.136390000000     0.333930000000     0.745580000000     0.0434364  
H432     H      0.159030000000     0.293310000000     0.468590000000     0.0319526  
H433     H      0.197000000000     0.355820000000     0.677790000000     0.0485483  
H434     H      0.152710000000     0.322800000000     0.692350000000     0.0499416  
H435     H      0.170460000000     0.374860000000     0.541020000000     0.044103   
H436     H      0.194180000000     0.346330000000     0.499540000000     0.0631087  
H437     H      0.187980000000     0.397970000000     0.707100000000     0.0357922  
H438     H      0.176980000000     0.346480000000     0.107860000000     0.0412312  
H439     H      0.251400000000     0.387840000000     0.000540000000     0.0362284  
H440     H      0.193040000000     0.311660000000     0.001530000000     0.0457413  
H441     H      0.227150000000     0.379990000000     0.220310000000     0.0380108  
H442     H      0.239690000000     0.388680000000     0.941860000000     0.0378532  
H443     H      0.205390000000     0.312460000000     0.158060000000     0.0361966  
H444     H      0.212870000000     0.385110000000     0.161640000000     0.036219   
H445     H      0.190670000000     0.304900000000     0.222780000000     0.0391603  
H446     H      0.181260000000     0.347860000000     0.041580000000     0.0458528  
H447     H      0.259700000000     0.375810000000     0.932850000000     0.0434442  
H448     H      0.250730000000     0.353710000000     0.118720000000     0.0461247  
H449     H      0.258230000000     0.362880000000     0.992200000000     0.0428202  
H450     H      0.196660000000     0.377070000000     0.226270000000     0.0417864  
H451     H      0.187780000000     0.314130000000     0.941980000000     0.0360564  
H452     H      0.177990000000     0.315780000000     0.165660000000     0.0388546  
H453     H      0.182190000000     0.357500000000     0.167710000000     0.0372056  
H454     H      0.254140000000     0.353070000000     0.052550000000     0.0434406  
H455     H      0.225390000000     0.319690000000     0.998060000000     0.0576966  
H456     H      0.222960000000     0.329330000000     0.217070000000     0.0381739  
H457     H      0.037100000000     0.263420000000     0.229210000000     0.0411342  
H458     H      0.969300000000     0.183140000000     0.188950000000     0.0391397  
H459     H      0.938540000000     0.199540000000     0.281300000000     0.0491285  
H460     H      0.092530000000     0.252680000000     0.331890000000     0.0392247  
H461     H      0.930840000000     0.150290000000     0.171100000000     0.0361325  
H462     H      0.051930000000     0.290050000000     0.300300000000     0.0356763  
H463     H      0.065400000000     0.229370000000     0.281830000000     0.0359683  
H464     H      0.098970000000     0.319430000000     0.308300000000     0.0398559  
H465     H      0.994290000000     0.236440000000     0.205770000000     0.0458723  
H466     H      0.923050000000     0.137840000000     0.216470000000     0.0497127  
H467     H      0.018850000000     0.216150000000     0.324270000000     0.0463498  
H468     H      0.964930000000     0.164330000000     0.228790000000     0.0371786  
H469     H      0.111750000000     0.258090000000     0.292250000000     0.0392844  
H470     H      0.907440000000     0.190590000000     0.238170000000     0.023828   
H471     H      0.071290000000     0.291140000000     0.262440000000     0.0369854  
H472     H      0.079060000000     0.256390000000     0.252100000000     0.0387158  
H473     H      0.976860000000     0.188080000000     0.299520000000     0.0446541  
H474     H      0.936790000000     0.169270000000     0.277740000000     0.0626797  
H475     H      0.084020000000     0.296670000000     0.343760000000     0.0358269  
H476     H      0.387520000000     0.447560000000     0.398670000000     0.0416216  
H477     H      0.300710000000     0.366730000000     0.378820000000     0.0377286  
H478     H      0.295130000000     0.431800000000     0.398640000000     0.051155   
H479     H      0.421240000000     0.431630000000     0.516320000000     0.0353837  
H480     H      0.275520000000     0.369900000000     0.330310000000     0.0357603  
H481     H      0.390770000000     0.476270000000     0.480200000000     0.0360183  
H482     H      0.397530000000     0.411470000000     0.461500000000     0.035536   
H483     H      0.435740000000     0.500480000000     0.500170000000     0.0396812  
H484     H      0.348360000000     0.429910000000     0.362810000000     0.0463188  
H485     H      0.256540000000     0.343330000000     0.358710000000     0.0487009  
H486     H      0.344000000000     0.412940000000     0.495430000000     0.0462199  
H487     H      0.279150000000     0.365850000000     0.413170000000     0.0492025  
H488     H      0.442910000000     0.435020000000     0.480730000000     0.0387054  
H489     H      0.269420000000     0.413130000000     0.346240000000     0.0308367  
H490     H      0.412510000000     0.477680000000     0.445740000000     0.0387419  
H491     H      0.416410000000     0.439320000000     0.434570000000     0.0383106  
H492     H      0.304930000000     0.395170000000     0.459690000000     0.0457217  
H493     H      0.277200000000     0.404150000000     0.426070000000     0.0607679  
H494     H      0.416540000000     0.473860000000     0.528630000000     0.0351824  
H495     H      0.582610000000     0.019890000000     0.775760000000     0.0412939  
H496     H      0.543670000000     0.980230000000     0.641880000000     0.034982   
H497     H      0.588710000000     0.059130000000     0.656730000000     0.0515021  
H498     H      0.507550000000     0.983280000000     0.857960000000     0.0367837  
H499     H      0.575920000000     0.998020000000     0.594450000000     0.035454   
H500     H      0.549330000000     0.053980000000     0.797760000000     0.0358698  
H501     H      0.533300000000     0.978850000000     0.813030000000     0.0350213  
H502     H      0.548490000000     0.059170000000     0.865640000000     0.0383405  
H503     H      0.593970000000     0.020830000000     0.711520000000     0.0459385  
H504     H      0.545090000000     0.985320000000     0.575070000000     0.0394417  
H505     H      0.510930000000     0.011850000000     0.743850000000     0.0451669  
H506     H      0.530780000000     0.999800000000     0.627650000000     0.0405726  
H507     H      0.534130000000     0.985190000000     0.881530000000     0.0390442  
H508     H      0.603360000000     0.046710000000     0.603430000000     0.0308261  
H509     H      0.570960000000     0.047480000000     0.822540000000     0.0382684  
H510     H      0.562000000000     0.004760000000     0.831000000000     0.0362579  
H511     H      0.522850000000     0.014360000000     0.679880000000     0.0419908  
H512     H      0.557530000000     0.046920000000     0.637710000000     0.0581085  
H513     H      0.518460000000     0.038260000000     0.845360000000     0.0379766  
H514     H      0.545550000000     0.036970000000     0.260350000000     0.0418243  
H515     H      0.486290000000     0.992130000000     0.158740000000     0.0379156  
H516     H      0.519350000000     0.070320000000     0.139730000000     0.0455072  
H517     H      0.483950000000     0.017970000000     0.369840000000     0.0363136  
H518     H      0.505340000000     0.997330000000     0.101980000000     0.041848   
H519     H      0.541610000000     0.077120000000     0.308840000000     0.0361566  
H520     H      0.485980000000     0.999610000000     0.312340000000     0.0355615  
H521     H      0.553210000000     0.075270000000     0.373800000000     0.0404644  
H522     H      0.542310000000     0.034980000000     0.193860000000     0.0464087  
H523     H      0.473110000000     0.986800000000     0.090600000000     0.0555945  
H524     H      0.474680000000     0.036400000000     0.266930000000     0.0463018  
H525     H      0.466280000000     0.004400000000     0.144790000000     0.0544345  
H526     H      0.496370000000     0.997150000000     0.377350000000     0.0384151  
H527     H      0.512590000000     0.065140000000     0.080340000000     0.0336122  
H528     H      0.551370000000     0.054130000000     0.317130000000     0.0383961  
H529     H      0.518770000000     0.008790000000     0.319000000000     0.0388792  
H530     H      0.470510000000     0.032460000000     0.200660000000     0.0463674  
H531     H      0.486180000000     0.053570000000     0.147600000000     0.0548143  
H532     H      0.521650000000     0.069700000000     0.367880000000     0.0356564  
H533     H      0.677100000000     0.093200000000     0.986430000000     0.0415641  
H534     H      0.754900000000     0.157830000000     0.073620000000     0.0360659  
H535     H      0.732670000000     0.080530000000     0.071400000000     0.0525298  
H536     H      0.598090000000     0.090470000000     0.036920000000     0.0379894  
H537     H      0.793100000000     0.156320000000     0.062760000000     0.0354169  
H538     H      0.634650000000     0.045130000000     0.040740000000     0.0369479  
H539     H      0.641340000000     0.116150000000     0.019010000000     0.0357656  
H540     H      0.591800000000     0.023660000000     0.010560000000     0.0391946  
H541     H      0.721920000000     0.109640000000     0.001280000000     0.0460055  
H542     H      0.793760000000     0.167370000000     0.108080000000     0.0432299  
H543     H      0.660880000000     0.096020000000     0.099870000000     0.0470165  
H544     H      0.748790000000     0.140580000000     0.115680000000     0.0446322  
H545     H      0.598340000000     0.094190000000     0.988550000000     0.0391236  
H546     H      0.777200000000     0.101450000000     0.063380000000     0.0298134  
H547     H      0.634490000000     0.054890000000     0.994520000000     0.0378185  
H548     H      0.638370000000     0.095500000000     0.982070000000     0.0372022  
H549     H      0.705430000000     0.112200000000     0.114810000000     0.0454074  
H550     H      0.734870000000     0.095840000000     0.114060000000     0.0626412  
H551     H      0.593330000000     0.038630000000     0.053080000000     0.0376866  
H552     H      0.236700000000     0.891000000000     0.618960000000     0.0413646  
H553     H      0.246760000000     0.864340000000     0.491160000000     0.0352865  
H554     H      0.209370000000     0.907170000000     0.489630000000     0.0545313  
H555     H      0.167590000000     0.811770000000     0.683330000000     0.0379164  
H556     H      0.265120000000     0.896800000000     0.443790000000     0.0370156  
H557     H      0.181430000000     0.882590000000     0.644160000000     0.036732   
H558     H      0.201230000000     0.825340000000     0.638940000000     0.0358605  
H559     H      0.177250000000     0.877980000000     0.711950000000     0.0399719  
H560     H      0.252510000000     0.905040000000     0.557030000000     0.0457526  
H561     H      0.250000000000     0.865880000000     0.423830000000     0.0394582  
H562     H      0.166060000000     0.832570000000     0.575180000000     0.0465045  
H563     H      0.216060000000     0.850170000000     0.469770000000     0.0397736  
H564     H      0.196630000000     0.819750000000     0.706370000000     0.0405313  
H565     H      0.243560000000     0.921580000000     0.445200000000     0.0284366  
H566     H      0.209770000000     0.887420000000     0.666800000000     0.0381693  
H567     H      0.221300000000     0.853930000000     0.663710000000     0.038437   
H568     H      0.182280000000     0.845840000000     0.513300000000     0.0436185  
H569     H      0.193290000000     0.876440000000     0.468460000000     0.0610338  
H570     H      0.154570000000     0.850700000000     0.687380000000     0.0364757  
H571     H      0.137550000000     0.789470000000     0.110190000000     0.0435538  
H572     H      0.157880000000     0.855220000000     0.998720000000     0.037793   
H573     H      0.189410000000     0.807440000000     0.998380000000     0.051353   
H574     H      0.158520000000     0.846720000000     0.218260000000     0.0406311  
H575     H      0.145810000000     0.835600000000     0.940750000000     0.0423536  
H576     H      0.197320000000     0.810890000000     0.151480000000     0.0367638  
H577     H      0.141230000000     0.831780000000     0.162090000000     0.0375478  
H578     H      0.189730000000     0.799290000000     0.221290000000     0.0344883  
H579     H      0.136800000000     0.791520000000     0.043430000000     0.0503889  
H580     H      0.171390000000     0.866830000000     0.933450000000     0.042563   
H581     H      0.204880000000     0.862520000000     0.112580000000     0.0472834  
H582     H      0.191080000000     0.867810000000     0.989810000000     0.0406054  
H583     H      0.137230000000     0.814900000000     0.230570000000     0.0365063  
H584     H      0.172260000000     0.800390000000     0.939720000000     0.0417559  
H585     H      0.165920000000     0.788890000000     0.166780000000     0.0372912  
H586     H      0.134480000000     0.800200000000     0.171260000000     0.0363064  
H587     H      0.204930000000     0.864100000000     0.046150000000     0.0435292  
H588     H      0.209040000000     0.840820000000     0.992260000000     0.0570246  
H589     H      0.210690000000     0.830790000000     0.206960000000     0.0409285  
H590     H      0.346090000000     0.935100000000     0.822860000000     0.0413473  
H591     H      0.399960000000     0.001200000000     0.925300000000     0.0390903  
H592     H      0.405960000000     0.935480000000     0.922700000000     0.0453568  
H593     H      0.255380000000     0.914050000000     0.860390000000     0.0438801  
H594     H      0.443680000000     0.015920000000     0.922060000000     0.0393386  
H595     H      0.306020000000     0.880480000000     0.854660000000     0.0389537  
H596     H      0.297850000000     0.945110000000     0.853290000000     0.036913   
H597     H      0.266550000000     0.859040000000     0.812320000000     0.0404994  
H598     H      0.388700000000     0.958310000000     0.849660000000     0.0456858  
H599     H      0.438180000000     0.019380000000     0.968870000000     0.0531066  
H600     H      0.313320000000     0.923870000000     0.929850000000     0.0512554  
H601     H      0.395810000000     0.984480000000     0.967270000000     0.0553669  
H602     H      0.258240000000     0.920040000000     0.812650000000     0.0360902  
H603     H      0.440990000000     0.952790000000     0.955380000000     0.0338972  
H604     H      0.306840000000     0.896000000000     0.812690000000     0.0352095  
H605     H      0.301990000000     0.931900000000     0.811920000000     0.0361118  
H606     H      0.355630000000     0.947530000000     0.956510000000     0.0481808  
H607     H      0.389080000000     0.937890000000     0.960380000000     0.0556664  
H608     H      0.262130000000     0.860410000000     0.860000000000     0.0572468  
H609     H      0.807300000000     0.656050000000     0.896620000000     0.0412351  
H610     H      0.807150000000     0.700570000000     0.756360000000     0.035429   
H611     H      0.841680000000     0.658190000000     0.788520000000     0.0502263  
H612     H      0.802590000000     0.709300000000     0.986900000000     0.0348648  
H613     H      0.797350000000     0.668280000000     0.710680000000     0.03584    
H614     H      0.867090000000     0.728010000000     0.921840000000     0.0354773  
H615     H      0.789050000000     0.677050000000     0.940640000000     0.0351024  
H616     H      0.875130000000     0.733040000000     0.988350000000     0.0406112  
H617     H      0.804250000000     0.646140000000     0.832220000000     0.0456606  
H618     H      0.817860000000     0.698690000000     0.691690000000     0.0403122  
H619     H      0.842870000000     0.735330000000     0.870790000000     0.0438604  
H620     H      0.840750000000     0.713460000000     0.749190000000     0.0409454  
H621     H      0.796790000000     0.680500000000     0.008000000000     0.0391041  
H622     H      0.819780000000     0.640920000000     0.731730000000     0.0317432  
H623     H      0.857500000000     0.698300000000     0.943890000000     0.0409797  
H624     H      0.812290000000     0.668660000000     0.955010000000     0.0382642  
H625     H      0.842280000000     0.725600000000     0.806730000000     0.0413027  
H626     H      0.860680000000     0.689080000000     0.769300000000     0.0587066  
H627     H      0.853920000000     0.743680000000     0.973310000000     0.0370676  
H628     H      0.847090000000     0.700810000000     0.332720000000     0.0431966  
H629     H      0.888620000000     0.664870000000     0.433260000000     0.0377672  
H630     H      0.899380000000     0.738530000000     0.440170000000     0.0493375  
H631     H      0.864740000000     0.667950000000     0.220170000000     0.0399925  
H632     H      0.874610000000     0.661400000000     0.491960000000     0.0428067  
H633     H      0.905830000000     0.738860000000     0.276620000000     0.0374564  
H634     H      0.847390000000     0.662520000000     0.280340000000     0.0365027  
H635     H      0.893920000000     0.742310000000     0.212330000000     0.0412534  
H636     H      0.852200000000     0.700090000000     0.398750000000     0.0562597  
H637     H      0.907490000000     0.673980000000     0.500870000000     0.0434254  
H638     H      0.917690000000     0.701950000000     0.316830000000     0.0476674  
H639     H      0.919390000000     0.691280000000     0.442950000000     0.0448378  
H640     H      0.834610000000     0.666160000000     0.216340000000     0.0397793  
H641     H      0.895730000000     0.735210000000     0.500370000000     0.0423139  
H642     H      0.873290000000     0.731000000000     0.271720000000     0.0388414  
H643     H      0.839620000000     0.687100000000     0.273730000000     0.0375178  
H644     H      0.923760000000     0.703210000000     0.382750000000     0.0443752  
H645     H      0.925920000000     0.733730000000     0.438680000000     0.0570442  
H646     H      0.906490000000     0.721520000000     0.217990000000     0.0466778  
H647     H      0.663050000000     0.591370000000     0.578220000000     0.041635   
H648     H      0.747650000000     0.601580000000     0.532270000000     0.0364569  
H649     H      0.752270000000     0.671540000000     0.553580000000     0.0457297  
H650     H      0.607130000000     0.539970000000     0.471610000000     0.0359494  
H651     H      0.781100000000     0.620750000000     0.573780000000     0.0394526  
H652     H      0.636140000000     0.613280000000     0.519680000000     0.0371806  
H653     H      0.642640000000     0.547820000000     0.509030000000     0.0349924  
H654     H      0.588650000000     0.586120000000     0.522930000000     0.0394816  
H655     H      0.708530000000     0.614400000000     0.592140000000     0.0463617  
H656     H      0.796530000000     0.626270000000     0.530710000000     0.0418232  
H657     H      0.679870000000     0.604530000000     0.463760000000     0.0464191  
H658     H      0.762350000000     0.626300000000     0.499020000000     0.0505714  
H659     H      0.595380000000     0.520770000000     0.511590000000     0.0384198  
H660     H      0.793840000000     0.690840000000     0.561000000000     0.0344241  
H661     H      0.624940000000     0.590110000000     0.555560000000     0.0379091  
H662     H      0.628570000000     0.552390000000     0.549340000000     0.037603   
H663     H      0.725200000000     0.627290000000     0.477530000000     0.0455324  
H664     H      0.755410000000     0.664910000000     0.507380000000     0.0552432  
H665     H      0.602220000000     0.586380000000     0.479580000000     0.037319   
H666     H      0.018050000000     0.759150000000     0.671430000000     0.0441523  
H667     H      0.056480000000     0.804110000000     0.795080000000     0.03689    
H668     H      0.071740000000     0.745660000000     0.769500000000     0.0461     
H669     H      0.927810000000     0.738850000000     0.694650000000     0.0429956  
H670     H      0.100000000000     0.826690000000     0.797190000000     0.0393888  
H671     H      0.970470000000     0.698490000000     0.688400000000     0.0385646  
H672     H      0.971760000000     0.767880000000     0.700420000000     0.0373806  
H673     H      0.936100000000     0.685430000000     0.640510000000     0.0451016  
H674     H      0.058000000000     0.777430000000     0.705560000000     0.0471428  
H675     H      0.092810000000     0.817750000000     0.843820000000     0.042476   
H676     H      0.976530000000     0.728400000000     0.770920000000     0.0490348  
H677     H      0.053580000000     0.782010000000     0.829650000000     0.0491463  
H678     H      0.937840000000     0.754040000000     0.651390000000     0.0454699  
H679     H      0.108880000000     0.765300000000     0.797550000000     0.0351761  
H680     H      0.978410000000     0.719810000000     0.650500000000     0.041405   
H681     H      0.979300000000     0.759200000000     0.657360000000     0.0417676  
H682     H      0.016380000000     0.746220000000     0.804910000000     0.0454308  
H683     H      0.055030000000     0.743500000000     0.810360000000     0.0563395  
H684     H      0.926830000000     0.686200000000     0.686440000000     0.0542571  
N1       N      0.814080000000     0.110170000000     0.671390000000    -0.17243    
N2       N      0.785440000000     0.060530000000     0.698090000000    -0.112309   
N3       N      0.743740000000     0.960500000000     0.754870000000    -0.112243   
N4       N      0.722410000000     0.914110000000     0.792010000000    -0.181275   
N5       N      0.811500000000     0.093850000000     0.609070000000    -0.034633   
N6       N      0.983230000000     0.458960000000     0.558960000000    -0.179941   
N7       N      0.957250000000     0.408640000000     0.576840000000    -0.10755    
N8       N      0.907250000000     0.307350000000     0.628920000000    -0.112812   
N9       N      0.882270000000     0.254700000000     0.638690000000    -0.180891   
N10      N      0.010650000000     0.464330000000     0.610830000000    -0.0322575  
N11      N      0.049380000000     0.583720000000     0.446490000000    -0.177956   
N12      N      0.075420000000     0.634240000000     0.430740000000    -0.105486   
N13      N      0.131720000000     0.736680000000     0.384220000000    -0.11198    
N14      N      0.162960000000     0.787970000000     0.369490000000    -0.180086   
N15      N      0.074500000000     0.578270000000     0.399310000000    -0.0324866  
N16      N      0.555640000000     0.573000000000     0.945770000000    -0.178028   
N17      N      0.583240000000     0.623320000000     0.929660000000    -0.106454   
N18      N      0.634520000000     0.725990000000     0.883790000000    -0.112432   
N19      N      0.659680000000     0.778120000000     0.871830000000    -0.180726   
N20      N      0.576580000000     0.565870000000     0.894120000000    -0.0328087  
N21      N      0.332680000000     0.105490000000     0.135420000000    -0.175022   
N22      N      0.312750000000     0.059440000000     0.165410000000    -0.103815   
N23      N      0.263950000000     0.961700000000     0.229440000000    -0.112002   
N24      N      0.239470000000     0.918480000000     0.273520000000    -0.178563   
N25      N      0.298750000000     0.088200000000     0.090350000000    -0.0326769  
N26      N      0.392720000000     0.250720000000     0.162860000000    -0.179102   
N27      N      0.413480000000     0.299160000000     0.140030000000    -0.107152   
N28      N      0.463650000000     0.402330000000     0.096640000000    -0.11267    
N29      N      0.488270000000     0.448470000000     0.058620000000    -0.178941   
N30      N      0.368580000000     0.259630000000     0.207610000000    -0.0324896  
N31      N      0.702590000000     0.860400000000     0.441280000000    -0.184894   
N32      N      0.691560000000     0.863790000000     0.516850000000    -0.109069   
N33      N      0.672290000000     0.823330000000     0.660450000000    -0.112808   
N34      N      0.674680000000     0.820520000000     0.736690000000    -0.181657   
N35      N      0.677330000000     0.818080000000     0.465380000000    -0.0319994  
N36      N      0.733960000000     0.869920000000     0.234030000000    -0.177522   
N37      N      0.730590000000     0.879040000000     0.162210000000    -0.103637   
N38      N      0.719150000000     0.886540000000     0.008390000000    -0.112257   
N39      N      0.709810000000     0.874540000000     0.933750000000    -0.181034   
N40      N      0.779760000000     0.889800000000     0.225680000000    -0.0309411  
N41      N      0.751210000000     0.826070000000     0.348140000000    -0.181903   
N42      N      0.773620000000     0.804060000000     0.304900000000    -0.110632   
N43      N      0.799190000000     0.768760000000     0.177230000000    -0.112888   
N44      N      0.817540000000     0.744200000000     0.132000000000    -0.18154    
N45      N      0.712370000000     0.782970000000     0.355280000000    -0.0318597  
N46      N      0.684530000000     0.905960000000     0.322460000000    -0.178831   
N47      N      0.660170000000     0.929770000000     0.346790000000    -0.107131   
N48      N      0.607070000000     0.978940000000     0.396170000000    -0.112423   
N49      N      0.582550000000     0.000610000000     0.434180000000    -0.180507   
N50      N      0.710460000000     0.942320000000     0.283780000000    -0.0312062  
N51      N      0.028530000000     0.555930000000     0.595650000000    -0.176008   
N52      N      0.025040000000     0.553310000000     0.668980000000    -0.104028   
N53      N      0.016190000000     0.546300000000     0.824080000000    -0.11188    
N54      N      0.016360000000     0.536760000000     0.899200000000    -0.178342   
N55      N      0.071460000000     0.591550000000     0.601050000000    -0.0324138  
N56      N      0.020200000000     0.506570000000     0.104840000000    -0.181415   
N57      N      0.021880000000     0.494740000000     0.179330000000    -0.109549   
N58      N      0.005510000000     0.478830000000     0.333280000000    -0.111392   
N59      N      0.003620000000     0.486680000000     0.408780000000    -0.178999   
N60      N      0.030760000000     0.549810000000     0.124190000000    -0.0320285  
N61      N      0.885570000000     0.668860000000     0.080720000000    -0.184243   
N62      N      0.908400000000     0.640290000000     0.058870000000    -0.110481   
N63      N      0.958030000000     0.582290000000     0.051350000000    -0.111876   
N64      N      0.983620000000     0.556570000000     0.030530000000    -0.176821   
N65      N      0.927000000000     0.704290000000     0.097940000000    -0.0222941  
N66      N      0.366440000000     0.184980000000     0.042580000000    -0.184265   
N67      N      0.369340000000     0.195980000000     0.965770000000    -0.108795   
N68      N      0.380430000000     0.175250000000     0.817750000000    -0.11263    
N69      N      0.379610000000     0.175190000000     0.741100000000    -0.18136    
N70      N      0.387560000000     0.165380000000     0.012280000000    -0.0300473  
N71      N      0.357370000000     0.166790000000     0.253160000000    -0.177393   
N72      N      0.359680000000     0.178920000000     0.324500000000    -0.104942   
N73      N      0.359220000000     0.200090000000     0.475520000000    -0.106998   
N74      N      0.356550000000     0.210220000000     0.546120000000    -0.177821   
N75      N      0.317020000000     0.128600000000     0.264830000000    -0.0325011  
N76      N      0.399080000000     0.158280000000     0.595530000000    -0.180154   
N77      N      0.424620000000     0.132440000000     0.581210000000    -0.107637   
N78      N      0.478690000000     0.084310000000     0.531620000000    -0.112435   
N79      N      0.508090000000     0.061800000000     0.517160000000    -0.178675   
N80      N      0.370320000000     0.132960000000     0.546670000000    -0.0323278  
N81      N      0.054150000000     0.485300000000     0.970560000000    -0.180531   
N82      N      0.082150000000     0.460410000000     0.957210000000    -0.109933   
N83      N      0.135450000000     0.414660000000     0.895970000000    -0.112482   
N84      N      0.162170000000     0.390150000000     0.876200000000    -0.180538   
N85      N      0.018130000000     0.450700000000     0.936430000000    -0.030264   
N86      N      0.230930000000     0.324940000000     0.786900000000    -0.178376   
N87      N      0.259050000000     0.301570000000     0.768190000000    -0.107747   
N88      N      0.311270000000     0.255480000000     0.704520000000    -0.112447   
N89      N      0.335720000000     0.228670000000     0.684780000000    -0.180826   
N90      N      0.193650000000     0.290030000000     0.756200000000    -0.0305859  
N91      N      0.496450000000     0.476140000000     0.910530000000    -0.175754   
N92      N      0.496770000000     0.479720000000     0.837600000000    -0.104225   
N93      N      0.498910000000     0.489980000000     0.682830000000    -0.112406   
N94      N      0.508740000000     0.500580000000     0.608090000000    -0.180603   
N95      N      0.499370000000     0.437900000000     0.905330000000    -0.0326229  
N96      N      0.548680000000     0.547180000000     0.094880000000    -0.183378   
N97      N      0.549750000000     0.550130000000     0.172160000000    -0.111188   
N98      N      0.521260000000     0.523620000000     0.320620000000    -0.112794   
N99      N      0.518490000000     0.517960000000     0.397000000000    -0.180617   
N100     N      0.525340000000     0.571720000000     0.093620000000    -0.0316224  
N101     N      0.858500000000     0.186360000000     0.755560000000    -0.181252   
N102     N      0.867700000000     0.187520000000     0.830910000000    -0.110094   
N103     N      0.889440000000     0.170700000000     0.976050000000    -0.113166   
N104     N      0.885420000000     0.161070000000     0.051240000000    -0.18152    
N105     N      0.819240000000     0.145010000000     0.763750000000    -0.0295086  
N106     N      0.832360000000     0.143200000000     0.246700000000    -0.176284   
N107     N      0.825900000000     0.156130000000     0.318560000000    -0.111456   
N108     N      0.823460000000     0.157350000000     0.473100000000    -0.111164   
N109     N      0.834220000000     0.169810000000     0.547100000000    -0.177194   
N110     N      0.785990000000     0.120740000000     0.238610000000    -0.0354055  
N111     N      0.163000000000     0.324360000000     0.437560000000    -0.181529   
N112     N      0.155070000000     0.327020000000     0.513230000000    -0.10972    
N113     N      0.163720000000     0.356920000000     0.662730000000    -0.111719   
N114     N      0.174660000000     0.364440000000     0.737690000000    -0.179946   
N115     N      0.197690000000     0.315230000000     0.453420000000    -0.0331495  
N116     N      0.220380000000     0.349440000000     0.929630000000    -0.17893    
N117     N      0.219300000000     0.350890000000     0.002590000000    -0.107267   
N118     N      0.212610000000     0.350280000000     0.157660000000    -0.112558   
N119     N      0.198220000000     0.342790000000     0.231440000000    -0.180594   
N120     N      0.218760000000     0.308760000000     0.932200000000    -0.0327141  
N121     N      0.913110000000     0.165590000000     0.204870000000    -0.182942   
N122     N      0.957250000000     0.194680000000     0.235430000000    -0.107119   
N123     N      0.055880000000     0.257550000000     0.294710000000    -0.112418   
N124     N      0.107570000000     0.289310000000     0.309890000000    -0.180484   
N125     N      0.888320000000     0.154050000000     0.262100000000    -0.07483    
N126     N      0.249690000000     0.374820000000     0.362930000000    -0.17852    
N127     N      0.301170000000     0.401360000000     0.386380000000    -0.110369   
N128     N      0.391020000000     0.441950000000     0.472130000000    -0.113171   
N129     N      0.441810000000     0.468650000000     0.495350000000    -0.181324   
N130     N      0.244780000000     0.410110000000     0.389270000000    -0.0316491  
N131     N      0.567900000000     0.026200000000     0.576650000000    -0.183085   
N132     N      0.567220000000     0.019240000000     0.653390000000    -0.111197   
N133     N      0.538120000000     0.015090000000     0.801820000000    -0.112679   
N134     N      0.533400000000     0.019840000000     0.876990000000    -0.180877   
N135     N      0.592510000000     0.073220000000     0.587720000000    -0.0317707  
N136     N      0.498640000000     0.025520000000     0.079670000000    -0.177871   
N137     N      0.505000000000     0.032070000000     0.153000000000    -0.107465   
N138     N      0.511690000000     0.038990000000     0.307840000000    -0.11285    
N139     N      0.523080000000     0.036910000000     0.381620000000    -0.181322   
N140     N      0.472940000000     0.045930000000     0.083680000000    -0.0325349  
N141     N      0.788750000000     0.129990000000     0.103590000000    -0.179246   
N142     N      0.742980000000     0.119030000000     0.067060000000    -0.110159   
N143     N      0.638880000000     0.081670000000     0.035340000000    -0.11243    
N144     N      0.589300000000     0.057420000000     0.007490000000    -0.180483   
N145     N      0.769140000000     0.083290000000     0.114870000000    -0.0317228  
N146     N      0.230330000000     0.887030000000     0.417740000000    -0.184121   
N147     N      0.228300000000     0.886020000000     0.494750000000    -0.111284   
N148     N      0.189440000000     0.852720000000     0.637430000000    -0.112832   
N149     N      0.182740000000     0.845740000000     0.713220000000    -0.181258   
N150     N      0.211300000000     0.915510000000     0.417400000000    -0.03142    
N151     N      0.179920000000     0.837070000000     0.925230000000    -0.179359   
N152     N      0.169950000000     0.828070000000     0.000400000000    -0.108355   
N153     N      0.172550000000     0.825940000000     0.155390000000    -0.110785   
N154     N      0.176030000000     0.824860000000     0.229250000000    -0.179663   
N155     N      0.211960000000     0.823410000000     0.931280000000    -0.031007   
N156     N      0.445920000000     0.989780000000     0.957510000000    -0.178685   
N157     N      0.400670000000     0.966910000000     0.920110000000    -0.107492   
N158     N      0.301290000000     0.912470000000     0.860600000000    -0.110072   
N159     N      0.254140000000     0.884620000000     0.828540000000    -0.177164   
N160     N      0.424360000000     0.956720000000     0.003180000000    -0.0329957  
N161     N      0.834560000000     0.675250000000     0.702210000000    -0.18278    
N162     N      0.821750000000     0.677610000000     0.776120000000    -0.110285   
N163     N      0.827140000000     0.703970000000     0.927080000000    -0.112441   
N164     N      0.835950000000     0.709530000000     0.002900000000    -0.180908   
N165     N      0.859010000000     0.654640000000     0.724110000000    -0.031983   
N166     N      0.894280000000     0.699940000000     0.508030000000    -0.176314   
N167     N      0.890070000000     0.700400000000     0.435060000000    -0.104354   
N168     N      0.879040000000     0.699720000000     0.280550000000    -0.111824   
N169     N      0.867220000000     0.702750000000     0.207230000000    -0.178812   
N170     N      0.932640000000     0.741130000000     0.505190000000    -0.0324167  
N171     N      0.798180000000     0.658550000000     0.555270000000    -0.179837   
N172     N      0.746840000000     0.635120000000     0.545130000000    -0.107443   
N173     N      0.641750000000     0.582130000000     0.510160000000    -0.112705   
N174     N      0.588690000000     0.552100000000     0.508270000000    -0.180714   
N175     N      0.801680000000     0.687250000000     0.506330000000    -0.0321907  
N176     N      0.107760000000     0.798050000000     0.814730000000    -0.179074   
N177     N      0.064000000000     0.775370000000     0.776970000000    -0.107128   
N178     N      0.970370000000     0.732450000000     0.700310000000    -0.111086   
N179     N      0.928820000000     0.715400000000     0.653260000000    -0.174918   
N180     N      0.092760000000     0.759190000000     0.849640000000    -0.0322423  
O1       O      0.848920000000     0.699260000000     0.650490000000    -0.556857   
O2       O      0.881030000000     0.712810000000     0.558100000000    -0.538041   
O3       O      0.833030000000     0.692140000000     0.580990000000    -0.544639   
O4       O      0.896910000000     0.719920000000     0.627700000000    -0.548863   
O5       O      0.894520000000     0.682350000000     0.625940000000    -0.546662   
O6       O      0.829340000000     0.654040000000     0.583320000000    -0.557629   
O7       O      0.876410000000     0.674300000000     0.557610000000    -0.557069   
O8       O      0.847590000000     0.662260000000     0.652040000000    -0.533424   
O9       O      0.185050000000     0.827070000000     0.766090000000    -0.560474   
O10      O      0.182300000000     0.822040000000     0.868950000000    -0.53219    
O11      O      0.147880000000     0.803340000000     0.815040000000    -0.544416   
O12      O      0.219160000000     0.845620000000     0.820260000000    -0.549249   
O13      O      0.214290000000     0.879390000000     0.823120000000    -0.555512   
O14      O      0.143120000000     0.837120000000     0.818710000000    -0.559402   
O15      O      0.177360000000     0.855670000000     0.872280000000    -0.556166   
O16      O      0.179750000000     0.860540000000     0.769290000000    -0.558926   
O17      O      0.524860000000     0.003450000000     0.934830000000    -0.55823    
O18      O      0.507940000000     0.006240000000     0.033430000000    -0.550662   
O19      O      0.481910000000     0.988570000000     0.971900000000    -0.546326   
O20      O      0.551410000000     0.021400000000     0.996980000000    -0.558573   
O21      O      0.554490000000     0.058730000000     0.986500000000    -0.556617   
O22      O      0.484730000000     0.025820000000     0.961770000000    -0.548413   
O23      O      0.511360000000     0.043750000000     0.023280000000    -0.543629   
O24      O      0.527960000000     0.040830000000     0.924680000000    -0.558868   
O25      O      0.173480000000     0.311460000000     0.384870000000    -0.533045   
O26      O      0.189660000000     0.319980000000     0.284260000000    -0.558802   
O27      O      0.215980000000     0.336490000000     0.346560000000    -0.550957   
O28      O      0.146830000000     0.294730000000     0.322420000000    -0.558148   
O29      O      0.141880000000     0.328460000000     0.320520000000    -0.557046   
O30      O      0.210870000000     0.369970000000     0.346690000000    -0.527143   
O31      O      0.185770000000     0.354330000000     0.283500000000    -0.555576   
O32      O      0.167190000000     0.344320000000     0.383210000000    -0.549981   
O33      O      0.837580000000     0.125760000000     0.194870000000    -0.525352   
O34      O      0.863600000000     0.134850000000     0.098660000000    -0.556338   
O35      O      0.882410000000     0.139390000000     0.166110000000    -0.554903   
O36      O      0.818120000000     0.120490000000     0.126860000000    -0.530986   
O37      O      0.827930000000     0.160590000000     0.124490000000    -0.553995   
O38      O      0.889470000000     0.178620000000     0.173520000000    -0.560349   
O39      O      0.875730000000     0.175690000000     0.102610000000    -0.562961   
O40      O      0.843610000000     0.164940000000     0.193870000000    -0.561807   
O41      O      0.514980000000     0.489030000000     0.551290000000    -0.556039   
O42      O      0.519410000000     0.497310000000     0.448660000000    -0.556605   
O43      O      0.552780000000     0.513440000000     0.503490000000    -0.558041   
O44      O      0.481430000000     0.472880000000     0.496240000000    -0.556357   
O45      O      0.477650000000     0.507120000000     0.502090000000    -0.557896   
O46      O      0.548990000000     0.547700000000     0.509000000000    -0.555831   
O47      O      0.515250000000     0.531360000000     0.454140000000    -0.554617   
O48      O      0.510880000000     0.523110000000     0.556870000000    -0.555246   
O49      O      0.203790000000     0.379260000000     0.783900000000    -0.556953   
O50      O      0.225340000000     0.372540000000     0.878010000000    -0.557454   
O51      O      0.231380000000     0.360010000000     0.810160000000    -0.556063   
O52      O      0.197670000000     0.391920000000     0.851820000000    -0.5581     
O53      O      0.163020000000     0.354440000000     0.859410000000    -0.558357   
O54      O      0.196090000000     0.322840000000     0.814670000000    -0.528907   
O55      O      0.191100000000     0.334500000000     0.883360000000    -0.546154   
O56      O      0.168060000000     0.342650000000     0.791100000000    -0.550522   
O57      O      0.392540000000     0.201690000000     0.691760000000    -0.558219   
O58      O      0.380960000000     0.219190000000     0.597490000000    -0.556433   
O59      O      0.371190000000     0.227820000000     0.665710000000    -0.555711   
O60      O      0.402090000000     0.193250000000     0.623360000000    -0.556157   
O61      O      0.364600000000     0.158000000000     0.621340000000    -0.544166   
O62      O      0.333770000000     0.192460000000     0.663840000000    -0.559631   
O63      O      0.343330000000     0.184080000000     0.595780000000    -0.550297   
O64      O      0.355030000000     0.166490000000     0.689950000000    -0.558852   
O65      O      0.036440000000     0.545900000000     0.954530000000    -0.556342   
O66      O      0.038260000000     0.531450000000     0.054560000000    -0.53624    
O67      O      0.054550000000     0.520900000000     0.991920000000    -0.556641   
O68      O      0.020190000000     0.556250000000     0.016790000000    -0.546077   
O69      O      0.983290000000     0.520470000000     0.012690000000    -0.555317   
O70      O      0.017600000000     0.485800000000     0.984660000000    -0.532846   
O71      O      0.002180000000     0.495130000000     0.048220000000    -0.552048   
O72      O      0.998760000000     0.511180000000     0.949110000000    -0.54704    
O73      O      0.742930000000     0.886200000000     0.291850000000    -0.539191   
O74      O      0.728610000000     0.880620000000     0.392870000000    -0.558365   
O75      O      0.751870000000     0.863930000000     0.348100000000    -0.553885   
O76      O      0.719660000000     0.902860000000     0.336080000000    -0.547195   
O77      O      0.683150000000     0.867780000000     0.324850000000    -0.555926   
O78      O      0.715160000000     0.828860000000     0.339710000000    -0.525333   
O79      O      0.691380000000     0.846130000000     0.382670000000    -0.540144   
O80      O      0.706970000000     0.850300000000     0.281940000000    -0.552037   
O81      O      0.876530000000     0.723470000000     0.152390000000    -0.5504     
O82      O      0.862430000000     0.725500000000     0.052150000000    -0.555866   
O83      O      0.852860000000     0.742850000000     0.114020000000    -0.559022   
O84      O      0.886070000000     0.706260000000     0.090720000000    -0.541788   
O85      O      0.849470000000     0.670280000000     0.094650000000    -0.556035   
O86      O      0.816750000000     0.706770000000     0.122050000000    -0.556438   
O87      O      0.825140000000     0.690450000000     0.058890000000    -0.556147   
O88      O      0.840950000000     0.686510000000     0.157760000000    -0.554995   
O89      O      0.573910000000     0.047560000000     0.522580000000    -0.530783   
O90      O      0.551930000000     0.052970000000     0.428170000000    -0.559038   
O91      O      0.544850000000     0.065040000000     0.495330000000    -0.548505   
O92      O      0.581180000000     0.035320000000     0.455070000000    -0.553823   
O93      O      0.547120000000     0.997250000000     0.461230000000    -0.558667   
O94      O      0.510850000000     0.026920000000     0.501500000000    -0.555521   
O95      O      0.518140000000     0.014700000000     0.434210000000    -0.557845   
O96      O      0.540180000000     0.009500000000     0.528780000000    -0.558473   
O97      O      0.345790000000     0.180600000000     0.096580000000    -0.55378    
O98      O      0.341060000000     0.171080000000     0.198940000000    -0.540865   
O99      O      0.358040000000     0.211360000000     0.154690000000    -0.546761   
O100     O      0.329040000000     0.140900000000     0.141020000000    -0.542466   
O101     O      0.367430000000     0.144890000000     0.142650000000    -0.548499   
O102     O      0.396530000000     0.215570000000     0.154820000000    -0.558165   
O103     O      0.379850000000     0.176020000000     0.199910000000    -0.556303   
O104     O      0.384150000000     0.184470000000     0.097440000000    -0.546492   
O105     O      0.492480000000     0.495800000000     0.961230000000    -0.55616    
O106     O      0.518240000000     0.531210000000     0.049920000000    -0.530683   
O107     O      0.521980000000     0.544050000000     0.979420000000    -0.550246   
O108     O      0.488410000000     0.482500000000     0.031860000000    -0.553555   
O109     O      0.522560000000     0.478280000000     0.026890000000    -0.553739   
O110     O      0.555930000000     0.539540000000     0.973860000000    -0.543382   
O111     O      0.552040000000     0.526660000000     0.044780000000    -0.558773   
O112     O      0.526280000000     0.490990000000     0.956150000000    -0.5385     
O113     O      0.199580000000     0.873570000000     0.373430000000    -0.532401   
O114     O      0.172530000000     0.842180000000     0.282710000000    -0.559129   
O115     O      0.167290000000     0.825950000000     0.351740000000    -0.555455   
O116     O      0.204350000000     0.889150000000     0.304280000000    -0.550168   
O117     O      0.237070000000     0.882730000000     0.297770000000    -0.553971   
O118     O      0.199640000000     0.819070000000     0.343990000000    -0.557269   
O119     O      0.205130000000     0.835640000000     0.275220000000    -0.556728   
O120     O      0.231510000000     0.866130000000     0.366730000000    -0.558998   
O121     O      0.004030000000     0.537870000000     0.545110000000    -0.55677    
O122     O      0.991780000000     0.504000000000     0.454680000000    -0.55792    
O123     O      0.981440000000     0.489600000000     0.525030000000    -0.556602   
O124     O      0.014390000000     0.552240000000     0.475070000000    -0.554718   
O125     O      0.050830000000     0.552080000000     0.478210000000    -0.540147   
O126     O      0.018390000000     0.490770000000     0.531140000000    -0.546104   
O127     O      0.027780000000     0.503190000000     0.460280000000    -0.548273   
O128     O      0.041340000000     0.539580000000     0.549170000000    -0.535937   
O129     O      0.835160000000     0.184990000000     0.705800000000    -0.540344   
O130     O      0.823260000000     0.176790000000     0.603950000000    -0.554114   
O131     O      0.812450000000     0.145910000000     0.661260000000    -0.546235   
O132     O      0.846160000000     0.216790000000     0.648690000000    -0.558794   
O133     O      0.882680000000     0.217410000000     0.640210000000    -0.559985   
O134     O      0.849250000000     0.146610000000     0.654870000000    -0.534964   
O135     O      0.859610000000     0.176850000000     0.596770000000    -0.555028   
O136     O      0.872510000000     0.187190000000     0.697900000000    -0.555567   
O137     O      0.664530000000     0.832830000000     0.790110000000    -0.556154   
O138     O      0.682400000000     0.861010000000     0.885050000000    -0.553546   
O139     O      0.688370000000     0.879500000000     0.816880000000    -0.558071   
O140     O      0.658230000000     0.813900000000     0.857530000000    -0.556908   
O141     O      0.694690000000     0.814030000000     0.851490000000    -0.557306   
O142     O      0.725650000000     0.880980000000     0.815110000000    -0.556553   
O143     O      0.718400000000     0.860020000000     0.881360000000    -0.561107   
O144     O      0.701930000000     0.834840000000     0.785210000000    -0.560037   
O145     O      0.809210000000     0.111630000000     0.591450000000    -0.116558   
O146     O      0.836060000000     0.101790000000     0.612800000000    -0.104339   
O147     O      0.029050000000     0.487350000000     0.602160000000    -0.105129   
O148     O      0.993620000000     0.466880000000     0.630210000000    -0.11496    
O149     O      0.068840000000     0.555100000000     0.409150000000    -0.108192   
O150     O      0.056470000000     0.576100000000     0.376650000000    -0.116824   
O151     O      0.569870000000     0.542220000000     0.902710000000    -0.106099   
O152     O      0.557950000000     0.565200000000     0.874340000000    -0.115722   
O153     O      0.304040000000     0.110900000000     0.078620000000    -0.101021   
O154     O      0.313050000000     0.081450000000     0.071440000000    -0.106745   
O155     O      0.352900000000     0.235490000000     0.215430000000    -0.103676   
O156     O      0.388750000000     0.267550000000     0.229040000000    -0.114069   
O157     O      0.653540000000     0.800120000000     0.471410000000    -0.117338   
O158     O      0.685600000000     0.810510000000     0.437270000000    -0.0849489  
O159     O      0.785930000000     0.893090000000     0.260790000000    -0.106811   
O160     O      0.774960000000     0.866770000000     0.216620000000    -0.120058   
O161     O      0.707060000000     0.791860000000     0.385000000000    -0.0849025  
O162     O      0.697900000000     0.782810000000     0.327990000000    -0.104766   
O163     O      0.727520000000     0.935310000000     0.277060000000    -0.1011     
O164     O      0.692140000000     0.931190000000     0.259140000000    -0.109776   
O165     O      0.077350000000     0.590010000000     0.566630000000    -0.102738   
O166     O      0.060770000000     0.605940000000     0.601580000000    -0.112272   
O167     O      0.049240000000     0.565850000000     0.102440000000    -0.108202   
O168     O      0.008660000000     0.543310000000     0.108440000000    -0.1139     
O169     O      0.951520000000     0.716430000000     0.089670000000    -0.118734   
O170     O      0.924720000000     0.696970000000     0.132550000000    -0.112188   
O171     O      0.410060000000     0.169890000000     0.000340000000    -0.119061   
O172     O      0.382280000000     0.150900000000     0.041700000000    -0.0944599  
O173     O      0.310070000000     0.124270000000     0.230050000000    -0.104457   
O174     O      0.330960000000     0.117850000000     0.271660000000    -0.113271   
O175     O      0.351610000000     0.137520000000     0.554080000000    -0.106899   
O176     O      0.386630000000     0.151440000000     0.525160000000    -0.115639   
O177     O      0.996790000000     0.442260000000     0.955330000000    -0.110685   
O178     O      0.021360000000     0.470080000000     0.916000000000    -0.107311   
O179     O      0.173340000000     0.281560000000     0.777430000000    -0.105909   
O180     O      0.195740000000     0.309470000000     0.737030000000    -0.111521   
O181     O      0.506270000000     0.438710000000     0.939900000000    -0.105842   
O182     O      0.474200000000     0.425500000000     0.904370000000    -0.113688   
O183     O      0.534270000000     0.579670000000     0.060260000000    -0.106761   
O184     O      0.501760000000     0.552510000000     0.091180000000    -0.108182   
O185     O      0.802480000000     0.147470000000     0.743390000000    -0.1191     
O186     O      0.831960000000     0.136450000000     0.742890000000    -0.213039   
O187     O      0.784800000000     0.128220000000     0.205000000000    -0.101247   
O188     O      0.788490000000     0.100370000000     0.236120000000    -0.0868653  
O189     O      0.193650000000     0.296140000000     0.431780000000    -0.106604   
O190     O      0.212680000000     0.336800000000     0.436260000000    -0.101529   
O191     O      0.210920000000     0.302540000000     0.897990000000    -0.102959   
O192     O      0.243920000000     0.322160000000     0.931600000000    -0.112363   
O193     O      0.894890000000     0.152500000000     0.296250000000    -0.127923   
O194     O      0.880700000000     0.131530000000     0.247190000000    -0.0994323  
O195     O      0.232730000000     0.415980000000     0.364300000000    -0.108094   
O196     O      0.227840000000     0.392110000000     0.410830000000    -0.096764   
O197     O      0.609350000000     0.080600000000     0.560860000000    -0.106636   
O198     O      0.572290000000     0.074290000000     0.576470000000    -0.110148   
O199     O      0.472270000000     0.049480000000     0.048050000000    -0.0996326  
O200     O      0.453890000000     0.023030000000     0.091350000000    -0.102425   
O201     O      0.786280000000     0.076810000000     0.105820000000    -0.103843   
O202     O      0.772050000000     0.090000000000     0.149760000000    -0.0779112  
O203     O      0.221430000000     0.923350000000     0.384570000000    -0.106007   
O204     O      0.186860000000     0.898620000000     0.413630000000    -0.10763    
O205     O      0.208290000000     0.806850000000     0.905190000000    -0.106393   
O206     O      0.226810000000     0.846520000000     0.918220000000    -0.111585   
O207     O      0.444970000000     0.960460000000     0.020940000000    -0.103636   
O208     O      0.417310000000     0.972300000000     0.017320000000    -0.102013   
O209     O      0.852440000000     0.635650000000     0.700950000000    -0.107925   
O210     O      0.879250000000     0.675050000000     0.711180000000    -0.113917   
O211     O      0.932300000000     0.745820000000     0.540490000000    -0.104758   
O212     O      0.944930000000     0.728370000000     0.501520000000    -0.112625   
O213     O      0.825680000000     0.704480000000     0.512630000000    -0.104619   
O214     O      0.801680000000     0.670020000000     0.484240000000    -0.11473    
O215     O      0.115330000000     0.766290000000     0.864170000000    -0.101341   
O216     O      0.081220000000     0.767910000000     0.871030000000    -0.112595   
V1       V      0.865080000000     0.707550000000     0.604290000000     1.40274    
V2       V      0.861800000000     0.666710000000     0.604750000000     1.41322    
V3       V      0.183760000000     0.823160000000     0.817390000000     1.41743    
V4       V      0.178460000000     0.859540000000     0.820920000000     1.39724    
V5       V      0.516510000000     0.003480000000     0.984630000000     1.40498    
V6       V      0.519790000000     0.043780000000     0.973580000000     1.40145    
V7       V      0.181630000000     0.314300000000     0.334520000000     1.40973    
V8       V      0.176210000000     0.350610000000     0.333330000000     1.40482    
V9       V      0.849960000000     0.128450000000     0.146420000000     1.43047    
V10      V      0.859560000000     0.171630000000     0.148250000000     1.4041     
V11      V      0.517310000000     0.491810000000     0.499730000000     1.39118    
V12      V      0.513120000000     0.528720000000     0.505770000000     1.39117    
V13      V      0.215930000000     0.377440000000     0.830790000000     1.39633    
V14      V      0.178180000000     0.337110000000     0.837480000000     1.41354    
V15      V      0.388190000000     0.211900000000     0.644760000000     1.39092    
V16      V      0.347720000000     0.173830000000     0.642740000000     1.40762    
V17      V      0.038860000000     0.540010000000     0.004710000000     1.40423    
V18      V      0.998990000000     0.501710000000     0.998440000000     1.40545    
V19      V      0.737200000000     0.884800000000     0.342700000000     1.41548    
V20      V      0.697670000000     0.846890000000     0.331910000000     1.41014    
V21      V      0.870900000000     0.725970000000     0.102050000000     1.40743    
V22      V      0.831610000000     0.687060000000     0.108560000000     1.38674    
V23      V      0.564360000000     0.051710000000     0.475060000000     1.41029    
V24      V      0.527740000000     0.010570000000     0.481760000000     1.39112    
V25      V      0.341990000000     0.175910000000     0.147770000000     1.41851    
V26      V      0.383540000000     0.180440000000     0.148720000000     1.40595    
V27      V      0.503910000000     0.513530000000     0.005890000000     1.41067    
V28      V      0.540570000000     0.508710000000     0.000220000000     1.40452    
V29      V      0.184640000000     0.857940000000     0.328480000000     1.41439    
V30      V      0.219640000000     0.850620000000     0.320710000000     1.39087    
V31      V      0.996440000000     0.520880000000     0.499760000000     1.3983     
V32      V      0.036060000000     0.521430000000     0.504880000000     1.41094    
V33      V      0.827840000000     0.181230000000     0.655140000000     1.40853    
V34      V      0.867480000000     0.182080000000     0.647030000000     1.4103     
V35      V      0.671920000000     0.846800000000     0.837710000000     1.38806    
V36      V      0.711640000000     0.847510000000     0.833160000000     1.39947    


