data_structure

_audit_creation_method RASPA-1.0
_audit_creation_date 2023-5-25
_audit_author_name 'Poobodin Mano'

_cell_length_a    37.6925
_cell_length_b    37.7676
_cell_length_c    37.9429
_cell_angle_alpha 90
_cell_angle_beta  90
_cell_angle_gamma 90
_cell_volume      54013.8

_symmetry_cell_setting          triclinic
_symmetry_space_group_name_Hall 'P 1'
_symmetry_space_group_name_H-M  'P 1'
_symmetry_Int_Tables_number     1

_symmetry_equiv_pos_as_xyz 'x,y,z'

loop_
_atom_site_label
_atom_site_type_symbol
_atom_site_fract_x
_atom_site_fract_y
_atom_site_fract_z
_atom_site_charge
C1       C      0.014410000000     0.073990000000     0.469730000000     0.475014   
C2       C      0.992680000000     0.943660000000     0.492660000000     0.475709   
C3       C      0.937730000000     0.020470000000     0.488240000000     0.474299   
C4       C      0.069590000000     0.998650000000     0.474050000000     0.474471   
C5       C      0.995260000000     0.441150000000     0.487050000000     0.472575   
C6       C      0.989160000000     0.574250000000     0.502690000000     0.471679   
C7       C      0.997740000000     0.516630000000     0.429010000000     0.475169   
C8       C      0.986590000000     0.498210000000     0.560730000000     0.475617   
C9       C      0.570590000000     0.002910000000     0.513170000000     0.473234   
C10      C      0.438810000000     0.993770000000     0.488190000000     0.471513   
C11      C      0.517250000000     0.004940000000     0.434860000000     0.472601   
C12      C      0.492380000000     0.992040000000     0.565600000000     0.473241   
C13      C      0.500160000000     0.995750000000     0.067120000000     0.473129   
C14      C      0.489930000000     0.988740000000     0.933990000000     0.471013   
C15      C      0.500860000000     0.059660000000     0.996350000000     0.473732   
C16      C      0.489300000000     0.926050000000     0.004080000000     0.47072    
C17      C      0.011460000000     0.506010000000     0.061800000000     0.473563   
C18      C      0.999280000000     0.499340000000     0.928980000000     0.472628   
C19      C      0.071760000000     0.497110000000     0.989650000000     0.474708   
C20      C      0.938060000000     0.508000000000     0.000240000000     0.474022   
C21      C      0.521450000000     0.427060000000     0.021600000000     0.471916   
C22      C      0.485910000000     0.556510000000     0.022380000000     0.473658   
C23      C      0.438920000000     0.474200000000     0.020830000000     0.472395   
C24      C      0.568520000000     0.509800000000     0.023140000000     0.472086   
C25      C      0.847650000000     0.548880000000     0.004500000000    -0.0342624  
C26      C      0.662730000000     0.505250000000     0.047050000000    -0.0323777  
C27      C      0.618840000000     0.539970000000     0.994060000000    -0.00220986 
C28      C      0.624700000000     0.516330000000     0.056150000000    -0.00133221 
C29      C      0.738430000000     0.545870000000     0.036360000000    -0.0552714  
C30      C      0.766380000000     0.497400000000     0.988250000000    -0.054519   
C31      C      0.715290000000     0.525000000000     0.016220000000     0.0601778  
C32      C      0.657160000000     0.528560000000     0.987500000000    -0.0318493  
C33      C      0.789510000000     0.519160000000     0.007430000000     0.0590098  
C34      C      0.843660000000     0.487260000000     0.021380000000    -0.0604339  
C35      C      0.775200000000     0.542610000000     0.032600000000    -0.0562592  
C36      C      0.879950000000     0.478290000000     0.005130000000     0.0868811  
C37      C      0.884780000000     0.544000000000     0.988890000000    -5.94289e-05
C38      C      0.729720000000     0.499640000000     0.993050000000    -0.0572672  
C39      C      0.875320000000     0.459450000000     0.969490000000    -0.184171   
C40      C      0.159730000000     0.453860000000     0.990720000000    -0.0343211  
C41      C      0.344800000000     0.484240000000     0.040570000000    -0.0324337  
C42      C      0.388450000000     0.446450000000     0.989520000000    -0.00203345 
C43      C      0.381170000000     0.469750000000     0.051480000000    -0.00135421 
C44      C      0.266940000000     0.451780000000     0.027460000000    -0.0551752  
C45      C      0.244680000000     0.498650000000     0.975020000000    -0.0547447  
C46      C      0.292400000000     0.469160000000     0.006820000000     0.0599714  
C47      C      0.351700000000     0.461210000000     0.980990000000    -0.0318301  
C48      C      0.219220000000     0.480190000000     0.994700000000     0.0589922  
C49      C      0.166800000000     0.516180000000     0.004700000000    -0.060578   
C50      C      0.230740000000     0.457700000000     0.022080000000    -0.0562689  
C51      C      0.130760000000     0.525740000000     0.988050000000     0.0867863  
C52      C      0.123400000000     0.460100000000     0.974020000000     0.000426848
C53      C      0.280880000000     0.493880000000     0.981420000000    -0.0570787  
C54      C      0.135680000000     0.542110000000     0.951320000000    -0.184845   
C55      C      0.470020000000     0.645420000000     0.985920000000    -0.0342919  
C56      C      0.510420000000     0.831060000000     0.021660000000    -0.0324248  
C57      C      0.451920000000     0.873620000000     0.994380000000    -0.00229452 
C58      C      0.518370000000     0.867840000000     0.006720000000    -0.000830143
C59      C      0.498310000000     0.755190000000     0.987260000000    -0.0549394  
C60      C      0.451670000000     0.726040000000     0.036510000000    -0.0548668  
C61      C      0.477380000000     0.777800000000     0.007930000000     0.0598897  
C62      C      0.447810000000     0.836040000000     0.008840000000    -0.0317685  
C63      C      0.471780000000     0.703450000000     0.015040000000     0.0591354  
C64      C      0.490810000000     0.650840000000     0.046310000000    -0.0605287  
C65      C      0.496240000000     0.718480000000     0.991230000000    -0.0563642  
C66      C      0.479370000000     0.612700000000     0.055220000000     0.0863531  
C67      C      0.458070000000     0.607210000000     0.991770000000     0.000166255
C68      C      0.454860000000     0.762820000000     0.033610000000    -0.0569386  
C69      C      0.444210000000     0.612290000000     0.075670000000    -0.184386   
C70      C      0.544210000000     0.147950000000     0.994070000000    -0.0343646  
C71      C      0.512610000000     0.333090000000     0.042880000000    -0.0323442  
C72      C      0.549580000000     0.376410000000     0.990970000000    -0.0022704  
C73      C      0.526350000000     0.369900000000     0.053080000000    -0.00141525 
C74      C      0.547580000000     0.255570000000     0.029880000000    -0.0552792  
C75      C      0.497800000000     0.232130000000     0.980620000000    -0.054553   
C76      C      0.528550000000     0.280500000000     0.010070000000     0.0600822  
C77      C      0.535580000000     0.339220000000     0.983200000000    -0.0318449  
C78      C      0.517770000000     0.207180000000     0.999470000000     0.0588621  
C79      C      0.483360000000     0.154770000000     0.013630000000    -0.0605152  
C80      C      0.541840000000     0.219290000000     0.025240000000    -0.0562059  
C81      C      0.472420000000     0.118620000000     0.998300000000     0.0866765  
C82      C      0.536780000000     0.111320000000     0.978570000000     0.000151839
C83      C      0.502510000000     0.268390000000     0.986280000000    -0.05722    
C84      C      0.452470000000     0.123180000000     0.963290000000    -0.184642   
C85      C      0.494990000000     0.012420000000     0.661030000000    -0.034704   
C86      C      0.449140000000     0.983180000000     0.844250000000    -0.0318245  
C87      C      0.519460000000     0.983820000000     0.876380000000    -0.000786733
C88      C      0.453060000000     0.972520000000     0.882960000000    -0.00239222 
C89      C      0.500280000000     0.954830000000     0.765990000000    -0.0548954  
C90      C      0.454170000000     0.002060000000     0.732830000000    -0.0548156  
C91      C      0.478820000000     0.976950000000     0.786680000000     0.0597457  
C92      C      0.511890000000     0.995110000000     0.838390000000    -0.0323403  
C93      C      0.475440000000     0.979760000000     0.712140000000     0.0588599  
C94      C      0.480790000000     0.950320000000     0.654180000000    -0.0597797  
C95      C      0.499290000000     0.956650000000     0.729200000000    -0.0560471  
C96      C      0.470850000000     0.955070000000     0.615030000000     0.0843182  
C97      C      0.484260000000     0.020890000000     0.623140000000     0.00152783 
C98      C      0.456320000000     0.001370000000     0.769600000000    -0.0567806  
C99      C      0.430440000000     0.953800000000     0.610060000000    -0.184632   
C100     C      0.480910000000     0.017230000000     0.161190000000    -0.0346669  
C101     C      0.530550000000     0.976020000000     0.343400000000    -0.0316713  
C102     C      0.517340000000     0.041990000000     0.381080000000    -0.00128389 
C103     C      0.544690000000     0.980830000000     0.380800000000    -0.0021117  
C104     C      0.540900000000     0.028450000000     0.264670000000    -0.0554845  
C105     C      0.490650000000     0.981010000000     0.238230000000    -0.0547493  
C106     C      0.521060000000     0.007770000000     0.288160000000     0.0600998  
C107     C      0.503800000000     0.034690000000     0.343640000000    -0.0323863  
C108     C      0.511730000000     0.000370000000     0.214670000000     0.0587944  
C109     C      0.540820000000     0.994610000000     0.157010000000    -0.0597024  
C110     C      0.535920000000     0.025360000000     0.228270000000    -0.0562253  
C111     C      0.534630000000     0.979480000000     0.119900000000     0.0845194  
C112     C      0.471000000000     0.002800000000     0.124770000000     0.00115628 
C113     C      0.494680000000     0.985100000000     0.274620000000    -0.0572604  
C114     C      0.530820000000     0.938990000000     0.121190000000    -0.184239   
C115     C      0.956380000000     0.508200000000     0.652730000000    -0.0348233  
C116     C      0.990760000000     0.461460000000     0.838170000000    -0.0319953  
C117     C      0.994150000000     0.530610000000     0.872440000000    -0.000495376
C118     C      0.006760000000     0.464050000000     0.875100000000    -0.0019708  
C119     C      0.009430000000     0.515950000000     0.759510000000    -0.054761   
C120     C      0.962270000000     0.467610000000     0.729400000000    -0.0552946  
C121     C      0.989900000000     0.493340000000     0.781470000000     0.0596547  
C122     C      0.977480000000     0.524060000000     0.836300000000    -0.0324684  
C123     C      0.983160000000     0.488980000000     0.707500000000     0.0594742  
C124     C      0.016260000000     0.484250000000     0.652410000000    -0.0599946  
C125     C      0.005550000000     0.514500000000     0.722970000000    -0.0566896  
C126     C      0.012970000000     0.471960000000     0.614050000000     0.0850327  
C127     C      0.949920000000     0.496390000000     0.614590000000     0.00159577 
C128     C      0.964970000000     0.470160000000     0.766060000000    -0.0565178  
C129     C      0.006650000000     0.431850000000     0.611950000000    -0.18496    
C130     C      0.979540000000     0.505940000000     0.333840000000    -0.0346861  
C131     C      0.021810000000     0.545620000000     0.150720000000    -0.0318393  
C132     C      0.011870000000     0.475800000000     0.119370000000    -0.000589016
C133     C      0.034280000000     0.538990000000     0.113010000000    -0.00187301 
C134     C      0.039480000000     0.496700000000     0.231660000000    -0.0553515  
C135     C      0.990630000000     0.544810000000     0.259370000000    -0.0549282  
C136     C      0.018900000000     0.517230000000     0.208680000000     0.0603064  
C137     C      0.999740000000     0.485560000000     0.156620000000    -0.0325824  
C138     C      0.011840000000     0.524930000000     0.282360000000     0.0591945  
C139     C      0.039780000000     0.527290000000     0.340870000000    -0.0599954  
C140     C      0.035590000000     0.499890000000     0.268140000000    -0.0563883  
C141     C      0.032840000000     0.539520000000     0.378940000000     0.0848723  
C142     C      0.969050000000     0.518160000000     0.370770000000     0.00161192 
C143     C      0.993480000000     0.540560000000     0.222920000000    -0.0572642  
C144     C      0.029090000000     0.579960000000     0.380810000000    -0.184808   
C145     C      0.158770000000     0.969970000000     0.441550000000    -0.0347921  
C146     C      0.343610000000     0.020290000000     0.480760000000    -0.0319071  
C147     C      0.387190000000     0.956920000000     0.472900000000    -0.000786244
C148     C      0.379870000000     0.019140000000     0.498560000000    -0.00184338 
C149     C      0.269210000000     0.960810000000     0.488660000000    -0.0552258  
C150     C      0.239810000000     0.008340000000     0.440370000000    -0.0550804  
C151     C      0.291540000000     0.983490000000     0.469630000000     0.0599847  
C152     C      0.350650000000     0.961730000000     0.455850000000    -0.0324051  
C153     C      0.217400000000     0.987830000000     0.461600000000     0.0592699  
C154     C      0.165480000000     0.000410000000     0.497370000000    -0.0599826  
C155     C      0.232450000000     0.962410000000     0.484280000000    -0.0566671  
C156     C      0.128300000000     0.016560000000     0.495420000000     0.0846738  
C157     C      0.121070000000     0.984530000000     0.436390000000     0.00143386 
C158     C      0.276640000000     0.005760000000     0.443760000000    -0.0572272  
C159     C      0.130090000000     0.055920000000     0.485270000000    -0.183871   
C160     C      0.851340000000     0.032270000000     0.533330000000    -0.0343641  
C161     C      0.665880000000     0.984180000000     0.504830000000    -0.0324211  
C162     C      0.620610000000     0.037420000000     0.537550000000    -0.00192928 
C163     C      0.629020000000     0.973790000000     0.518210000000    -0.00090712 
C164     C      0.742150000000     0.999710000000     0.540380000000    -0.0552619  
C165     C      0.766320000000     0.046330000000     0.488550000000    -0.0548118  
C166     C      0.717470000000     0.018750000000     0.520260000000     0.0601399  
C167     C      0.658050000000     0.045080000000     0.524070000000    -0.031899   
C168     C      0.791020000000     0.027860000000     0.509150000000     0.0591973  
C169     C      0.841420000000     0.008830000000     0.474610000000    -0.0606664  
C170     C      0.778550000000     0.003580000000     0.534500000000    -0.056648   
C171     C      0.877960000000     0.021370000000     0.461650000000     0.0865942  
C172     C      0.888600000000     0.045120000000     0.523740000000     6.61865e-05
C173     C      0.729930000000     0.041370000000     0.493430000000    -0.0572996  
C174     C      0.874780000000     0.055430000000     0.439760000000    -0.184463   
C175     C      0.003880000000     0.853820000000     0.529250000000    -0.0346504  
C176     C      0.953200000000     0.666960000000     0.502930000000    -0.0320188  
C177     C      0.020570000000     0.630180000000     0.513380000000    -0.000395778
C178     C      0.956840000000     0.628990000000     0.489520000000    -0.00180069 
C179     C      0.009680000000     0.743450000000     0.485970000000    -0.0550906  
C180     C      0.960460000000     0.776490000000     0.530130000000    -0.0552285  
C181     C      0.986480000000     0.722670000000     0.506080000000     0.0599041  
C182     C      0.012770000000     0.667710000000     0.526390000000    -0.0325202  
C183     C      0.982340000000     0.797180000000     0.508520000000     0.0593791  
C184     C      0.975020000000     0.849680000000     0.472100000000    -0.059978   
C185     C      0.008190000000     0.780350000000     0.487590000000    -0.0567728  
C186     C      0.963480000000     0.888610000000     0.473160000000     0.0848695  
C187     C      0.993050000000     0.892710000000     0.533430000000     0.00138803 
C188     C      0.962880000000     0.739550000000     0.529510000000    -0.0569812  
C189     C      0.923970000000     0.891980000000     0.482470000000    -0.184743   
C190     C      0.027380000000     0.166510000000     0.493700000000    -0.0341117  
C191     C      0.973170000000     0.348960000000     0.459530000000    -0.0325018  
C192     C      0.028810000000     0.386510000000     0.497900000000    -0.00146936 
C193     C      0.964500000000     0.384600000000     0.476750000000    -0.000589006
C194     C      0.982830000000     0.269320000000     0.490520000000    -0.0552577  
C195     C      0.032420000000     0.244860000000     0.441480000000    -0.055281   
C196     C      0.003560000000     0.293750000000     0.471880000000     0.0600053  
C197     C      0.033910000000     0.350560000000     0.480270000000    -0.0319586  
C198     C      0.013370000000     0.220480000000     0.461850000000     0.0594539  
C199     C      0.996760000000     0.163580000000     0.437160000000    -0.0606666  
C200     C      0.987090000000     0.233000000000     0.485130000000    -0.0569258  
C201     C      0.010880000000     0.125890000000     0.430050000000     0.0868153  
C202     C      0.042780000000     0.129550000000     0.488960000000     0.00101079 
C203     C      0.027150000000     0.281230000000     0.445860000000    -0.05711    
C204     C      0.042320000000     0.126520000000     0.404340000000    -0.18502    
H1       H      0.712890000000     0.481940000000     0.978160000000     0.0386794  
H2       H      0.834180000000     0.570780000000     0.990150000000     0.032518   
H3       H      0.826670000000     0.463120000000     0.021240000000     0.0386186  
H4       H      0.618720000000     0.568640000000     0.000720000000     0.0323997  
H5       H      0.882550000000     0.543540000000     0.959670000000     0.03088    
H6       H      0.678790000000     0.506070000000     0.071660000000     0.0322253  
H7       H      0.669190000000     0.546780000000     0.967790000000     0.0326999  
H8       H      0.613250000000     0.496400000000     0.074480000000     0.0358738  
H9       H      0.893390000000     0.459430000000     0.023310000000     0.0157139  
H10      H      0.776940000000     0.478490000000     0.969510000000     0.0400834  
H11      H      0.901050000000     0.567510000000     0.995940000000     0.036166   
H12      H      0.727830000000     0.564770000000     0.055070000000     0.0418372  
H13      H      0.850410000000     0.556660000000     0.032670000000     0.0349222  
H14      H      0.603460000000     0.536670000000     0.969280000000     0.0370148  
H15      H      0.662900000000     0.477560000000     0.036930000000     0.0370914  
H16      H      0.656730000000     0.501360000000     0.976250000000     0.0359432  
H17      H      0.792100000000     0.558930000000     0.048890000000     0.0385063  
H18      H      0.847110000000     0.495280000000     0.049440000000     0.0421405  
H19      H      0.625500000000     0.542240000000     0.070050000000     0.0336698  
H20      H      0.859640000000     0.434780000000     0.972860000000     0.0587993  
H21      H      0.901570000000     0.452100000000     0.958430000000     0.07139    
H22      H      0.861540000000     0.476850000000     0.950250000000     0.0707119  
H23      H      0.299550000000     0.509010000000     0.965920000000     0.0384698  
H24      H      0.172290000000     0.430640000000     0.977660000000     0.0326396  
H25      H      0.184850000000     0.539470000000     0.002920000000     0.0387037  
H26      H      0.385630000000     0.417880000000     0.996060000000     0.0322808  
H27      H      0.126630000000     0.460830000000     0.944910000000     0.030072   
H28      H      0.327420000000     0.484510000000     0.064280000000     0.0317074  
H29      H      0.339290000000     0.444290000000     0.960380000000     0.0325254  
H30      H      0.393170000000     0.488210000000     0.070960000000     0.0347586  
H31      H      0.118330000000     0.546250000000     0.005140000000     0.0155482  
H32      H      0.236340000000     0.516840000000     0.954570000000     0.0402565  
H33      H      0.106100000000     0.437080000000     0.980210000000     0.0363023  
H34      H      0.275280000000     0.433490000000     0.047830000000     0.0415949  
H35      H      0.155720000000     0.447540000000     0.019100000000     0.0359207  
H36      H      0.405450000000     0.448350000000     0.965660000000     0.0368809  
H37      H      0.347580000000     0.511970000000     0.030940000000     0.0365233  
H38      H      0.355120000000     0.488400000000     0.970230000000     0.0359423  
H39      H      0.212070000000     0.444030000000     0.038870000000     0.0385799  
H40      H      0.163100000000     0.510160000000     0.033220000000     0.0423773  
H41      H      0.377350000000     0.443690000000     0.064590000000     0.0334123  
H42      H      0.151780000000     0.566680000000     0.953140000000     0.0590121  
H43      H      0.109470000000     0.549120000000     0.939920000000     0.0706116  
H44      H      0.149170000000     0.523330000000     0.933210000000     0.0706463  
H45      H      0.439170000000     0.779190000000     0.051000000000     0.0381586  
H46      H      0.452810000000     0.657560000000     0.965370000000     0.0327504  
H47      H      0.489790000000     0.667240000000     0.070690000000     0.0388295  
H48      H      0.450510000000     0.872520000000     0.965120000000     0.0331677  
H49      H      0.428970000000     0.607110000000     0.996530000000     0.0300224  
H50      H      0.534640000000     0.814500000000     0.018470000000     0.0316217  
H51      H      0.424860000000     0.823260000000     0.995470000000     0.0323744  
H52      H      0.538910000000     0.880640000000     0.023500000000     0.032758   
H53      H      0.500100000000     0.601430000000     0.072870000000     0.0164827  
H54      H      0.433490000000     0.715000000000     0.055690000000     0.0402316  
H55      H      0.462830000000     0.591950000000     0.967180000000     0.0365196  
H56      H      0.516460000000     0.766190000000     0.968040000000     0.0418348  
H57      H      0.497810000000     0.644880000000     0.976030000000     0.035964   
H58      H      0.428990000000     0.889720000000     0.003500000000     0.0363973  
H59      H      0.504460000000     0.832940000000     0.050370000000     0.0352139  
H60      H      0.441940000000     0.837790000000     0.037550000000     0.0341733  
H61      H      0.513350000000     0.702140000000     0.975180000000     0.0386584  
H62      H      0.518840000000     0.650790000000     0.036990000000     0.0425696  
H63      H      0.529710000000     0.864840000000     0.979820000000     0.0353857  
H64      H      0.447110000000     0.626930000000     0.100900000000     0.0587487  
H65      H      0.436570000000     0.584580000000     0.081880000000     0.069107   
H66      H      0.422560000000     0.624670000000     0.060090000000     0.0700723  
H67      H      0.486150000000     0.286680000000     0.971600000000     0.0387025  
H68      H      0.566070000000     0.160440000000     0.978760000000     0.0326469  
H69      H      0.459870000000     0.172670000000     0.013940000000     0.038817   
H70      H      0.578280000000     0.374370000000     0.997450000000     0.032446   
H71      H      0.533800000000     0.113970000000     0.949540000000     0.0303792  
H72      H      0.512680000000     0.316200000000     0.066920000000     0.0322114  
H73      H      0.552810000000     0.326770000000     0.962870000000     0.0326115  
H74      H      0.507550000000     0.381860000000     0.072270000000     0.0361002  
H75      H      0.453690000000     0.106290000000     0.017390000000     0.0158099  
H76      H      0.478400000000     0.223320000000     0.961470000000     0.0402712  
H77      H      0.560320000000     0.094240000000     0.983330000000     0.036381   
H78      H      0.566920000000     0.264390000000     0.049070000000     0.0418099  
H79      H      0.553190000000     0.144510000000     0.021800000000     0.0355667  
H80      H      0.547200000000     0.392820000000     0.966770000000     0.0370238  
H81      H      0.484780000000     0.335110000000     0.033190000000     0.037232   
H82      H      0.508290000000     0.341820000000     0.972320000000     0.035981   
H83      H      0.556740000000     0.200990000000     0.041380000000     0.0385252  
H84      H      0.492150000000     0.151390000000     0.041470000000     0.0422357  
H85      H      0.552480000000     0.366880000000     0.066360000000     0.0335491  
H86      H      0.428180000000     0.139340000000     0.967300000000     0.0589668  
H87      H      0.444290000000     0.096940000000     0.952890000000     0.0706867  
H88      H      0.469460000000     0.136370000000     0.943290000000     0.0705113  
H89      H      0.440080000000     0.019740000000     0.784290000000     0.0381525  
H90      H      0.490640000000     0.036670000000     0.677160000000     0.0320102  
H91      H      0.465770000000     0.927630000000     0.665530000000     0.0391363  
H92      H      0.530180000000     0.956380000000     0.876240000000     0.0352611  
H93      H      0.456960000000     0.032060000000     0.623160000000     0.0320698  
H94      H      0.426170000000     0.968620000000     0.832860000000     0.032279   
H95      H      0.536200000000     0.990020000000     0.822510000000     0.0319347  
H96      H      0.429940000000     0.983050000000     0.897850000000     0.0360377  
H97      H      0.482140000000     0.932140000000     0.600410000000     0.0177743  
H98      H      0.436260000000     0.020590000000     0.720260000000     0.040476   
H99      H      0.502460000000     0.041680000000     0.612930000000     0.034965   
H100     H      0.518310000000     0.936410000000     0.778560000000     0.0417506  
H101     H      0.523760000000     0.005730000000     0.662210000000     0.0371429  
H102     H      0.540340000000     0.001470000000     0.887390000000     0.0344785  
H103     H      0.443380000000     0.012080000000     0.843170000000     0.0342234  
H104     H      0.506230000000     0.024050000000     0.837330000000     0.0361804  
H105     H      0.517020000000     0.939740000000     0.714450000000     0.0384943  
H106     H      0.509540000000     0.943650000000     0.655500000000     0.0405978  
H107     H      0.451940000000     0.943150000000     0.884780000000     0.0330581  
H108     H      0.419760000000     0.928000000000     0.619320000000     0.0599914  
H109     H      0.423720000000     0.956680000000     0.581690000000     0.0682569  
H110     H      0.417320000000     0.975470000000     0.624960000000     0.0707555  
H111     H      0.477770000000     0.969880000000     0.291950000000     0.0387686  
H112     H      0.456420000000     0.018000000000     0.177580000000     0.0321484  
H113     H      0.561710000000     0.978940000000     0.170730000000     0.0390989  
H114     H      0.542350000000     0.057520000000     0.379320000000     0.0338929  
H115     H      0.455590000000     0.977930000000     0.128190000000     0.03276    
H116     H      0.548800000000     0.958060000000     0.328820000000     0.0325149  
H117     H      0.502160000000     0.060360000000     0.329320000000     0.0322794  
H118     H      0.543990000000     0.954860000000     0.394560000000     0.0368886  
H119     H      0.558800000000     0.985410000000     0.104120000000     0.0178412  
H120     H      0.471170000000     0.962470000000     0.228260000000     0.0407451  
H121     H      0.453370000000     0.022320000000     0.111520000000     0.0340629  
H122     H      0.560560000000     0.046790000000     0.274650000000     0.0419386  
H123     H      0.491140000000     0.044800000000     0.158780000000     0.0363669  
H124     H      0.497370000000     0.058380000000     0.395180000000     0.0354814  
H125     H      0.504040000000     0.963160000000     0.345080000000     0.0360286  
H126     H      0.476660000000     0.023060000000     0.344840000000     0.0368311  
H127     H      0.551650000000     0.041830000000     0.210980000000     0.0384241  
H128     H      0.550890000000     0.022190000000     0.154180000000     0.040405   
H129     H      0.572940000000     0.989150000000     0.379140000000     0.0322354  
H130     H      0.555040000000     0.926790000000     0.132630000000     0.0594472  
H131     H      0.527290000000     0.928300000000     0.094140000000     0.068251   
H132     H      0.507510000000     0.931190000000     0.137340000000     0.0706896  
H133     H      0.948360000000     0.453180000000     0.781990000000     0.0380949  
H134     H      0.930470000000     0.508090000000     0.666820000000     0.0323803  
H135     H      0.035290000000     0.466860000000     0.666730000000     0.0395406  
H136     H      0.021060000000     0.542080000000     0.868700000000     0.034211   
H137     H      0.934840000000     0.471090000000     0.614810000000     0.0320888  
H138     H      0.003820000000     0.439170000000     0.824030000000     0.0320905  
H139     H      0.979850000000     0.548880000000     0.820650000000     0.0314793  
H140     H      0.998080000000     0.440600000000     0.890590000000     0.0356709  
H141     H      0.038970000000     0.477200000000     0.601170000000     0.0181934  
H142     H      0.944160000000     0.448550000000     0.717940000000     0.0409088  
H143     H      0.933250000000     0.516630000000     0.601190000000     0.0339533  
H144     H      0.027990000000     0.534640000000     0.770860000000     0.0411556  
H145     H      0.966940000000     0.535750000000     0.653070000000     0.0368861  
H146     H      0.977840000000     0.550550000000     0.886700000000     0.0338613  
H147     H      0.961950000000     0.455400000000     0.840700000000     0.0339384  
H148     H      0.948740000000     0.517840000000     0.839190000000     0.0359799  
H149     H      0.020930000000     0.532560000000     0.707010000000     0.0385603  
H150     H      0.027490000000     0.511510000000     0.652160000000     0.0413276  
H151     H      0.036140000000     0.462590000000     0.872840000000     0.0323156  
H152     H      0.029150000000     0.417320000000     0.624140000000     0.059841   
H153     H      0.004630000000     0.423520000000     0.583940000000     0.0667734  
H154     H      0.981760000000     0.424310000000     0.625720000000     0.0709459  
H155     H      0.976050000000     0.555800000000     0.206150000000     0.0386664  
H156     H      0.955400000000     0.506710000000     0.316940000000     0.0322046  
H157     H      0.061040000000     0.543820000000     0.328830000000     0.0392019  
H158     H      0.037610000000     0.461500000000     0.121110000000     0.0343185  
H159     H      0.954970000000     0.543960000000     0.368720000000     0.0319167  
H160     H      0.039160000000     0.566150000000     0.162800000000     0.0324036  
H161     H      0.000420000000     0.461160000000     0.173070000000     0.0321507  
H162     H      0.029630000000     0.563400000000     0.097280000000     0.0367775  
H163     H      0.056660000000     0.532290000000     0.394720000000     0.0178689  
H164     H      0.971440000000     0.563370000000     0.269870000000     0.0407765  
H165     H      0.950090000000     0.498560000000     0.381910000000     0.0349413  
H166     H      0.058410000000     0.477870000000     0.221160000000     0.0418377  
H167     H      0.989220000000     0.478070000000     0.334740000000     0.0368748  
H168     H      0.992060000000     0.457410000000     0.107660000000     0.0349476  
H169     H      0.994200000000     0.556020000000     0.149660000000     0.0353701  
H170     H      0.971890000000     0.495420000000     0.155960000000     0.0366748  
H171     H      0.051400000000     0.482990000000     0.284920000000     0.0384757  
H172     H      0.049610000000     0.499520000000     0.341920000000     0.0406755  
H173     H      0.063380000000     0.534200000000     0.113400000000     0.0323963  
H174     H      0.053720000000     0.592970000000     0.371260000000     0.0599744  
H175     H      0.024600000000     0.588340000000     0.408530000000     0.0681869  
H176     H      0.006390000000     0.589180000000     0.364550000000     0.0708267  
H177     H      0.293190000000     0.022510000000     0.427510000000     0.0384943  
H178     H      0.170790000000     0.965590000000     0.415110000000     0.0321063  
H179     H      0.183080000000     0.017950000000     0.513240000000     0.0394994  
H180     H      0.384320000000     0.939750000000     0.496550000000     0.0335846  
H181     H      0.122110000000     0.006950000000     0.417420000000     0.0318822  
H182     H      0.325870000000     0.037690000000     0.496600000000     0.0323403  
H183     H      0.338220000000     0.935160000000     0.452860000000     0.0318634  
H184     H      0.392280000000     0.045740000000     0.496180000000     0.0365531  
H185     H      0.116940000000     0.015180000000     0.522460000000     0.0181923  
H186     H      0.228630000000     0.027390000000     0.422150000000     0.040661   
H187     H      0.104220000000     0.963510000000     0.424480000000     0.0328744  
H188     H      0.280320000000     0.942750000000     0.507890000000     0.0415942  
H189     H      0.157630000000     0.943990000000     0.455420000000     0.0359255  
H190     H      0.404830000000     0.942890000000     0.453990000000     0.0343936  
H191     H      0.346760000000     0.032230000000     0.454120000000     0.0347588  
H192     H      0.353560000000     0.973570000000     0.429110000000     0.0359289  
H193     H      0.215850000000     0.945240000000     0.500060000000     0.0385137  
H194     H      0.163570000000     0.974600000000     0.511440000000     0.041021   
H195     H      0.376010000000     0.013900000000     0.527150000000     0.0314403  
H196     H      0.146090000000     0.070890000000     0.504820000000     0.0590427  
H197     H      0.102990000000     0.067470000000     0.484890000000     0.0667801  
H198     H      0.142120000000     0.059330000000     0.458760000000     0.0697136  
H199     H      0.711850000000     0.055420000000     0.476330000000     0.0387192  
H200     H      0.840410000000     0.049870000000     0.554200000000     0.0325614  
H201     H      0.822760000000     0.007910000000     0.451860000000     0.0384851  
H202     H      0.621960000000     0.033140000000     0.566510000000     0.0323849  
H203     H      0.887450000000     0.074080000000     0.518610000000     0.0302297  
H204     H      0.683300000000     0.960430000000     0.506460000000     0.0319714  
H205     H      0.669730000000     0.066760000000     0.540200000000     0.0325793  
H206     H      0.617790000000     0.953480000000     0.500150000000     0.0353705  
H207     H      0.888430000000     0.000320000000     0.443930000000     0.0150409  
H208     H      0.775430000000     0.064270000000     0.468200000000     0.0403112  
H209     H      0.906230000000     0.041130000000     0.546890000000     0.0360954  
H210     H      0.733040000000     0.981410000000     0.560400000000     0.0417631  
H211     H      0.853580000000     0.004980000000     0.544170000000     0.0349591  
H212     H      0.603760000000     0.061120000000     0.532920000000     0.0368266  
H213     H      0.664260000000     0.992450000000     0.476690000000     0.0368901  
H214     H      0.655920000000     0.054280000000     0.496290000000     0.0359323  
H215     H      0.796630000000     0.987730000000     0.549980000000     0.0383422  
H216     H      0.843610000000     0.981380000000     0.485180000000     0.040814   
H217     H      0.631760000000     0.961610000000     0.544760000000     0.0339703  
H218     H      0.857640000000     0.050830000000     0.416380000000     0.0586156  
H219     H      0.901380000000     0.063750000000     0.430290000000     0.0695552  
H220     H      0.863260000000     0.077290000000     0.455640000000     0.0702102  
H221     H      0.945570000000     0.724410000000     0.546520000000     0.0384805  
H222     H      0.005750000000     0.841800000000     0.555980000000     0.0324084  
H223     H      0.955860000000     0.834130000000     0.455960000000     0.0394208  
H224     H      0.037380000000     0.631820000000     0.489340000000     0.0336702  
H225     H      0.969020000000     0.894150000000     0.550360000000     0.0318661  
H226     H      0.933900000000     0.681180000000     0.485810000000     0.0322665  
H227     H      0.038260000000     0.682570000000     0.527340000000     0.03186    
H228     H      0.931750000000     0.614620000000     0.495290000000     0.0363058  
H229     H      0.966740000000     0.899280000000     0.446020000000     0.0180767  
H230     H      0.941120000000     0.789070000000     0.547110000000     0.0409955  
H231     H      0.014780000000     0.907050000000     0.547210000000     0.0342717  
H232     H      0.028740000000     0.730910000000     0.468640000000     0.041456   
H233     H      0.030530000000     0.852190000000     0.516640000000     0.0365954  
H234     H      0.036210000000     0.616060000000     0.533900000000     0.0343182  
H235     H      0.942360000000     0.666220000000     0.530220000000     0.0343223  
H236     H      0.001650000000     0.666880000000     0.553580000000     0.0360088  
H237     H      0.026520000000     0.795540000000     0.471720000000     0.038555   
H238     H      0.001250000000     0.848400000000     0.458680000000     0.0412807  
H239     H      0.959860000000     0.629640000000     0.460370000000     0.0319203  
H240     H      0.907460000000     0.878200000000     0.462460000000     0.0593259  
H241     H      0.916140000000     0.920350000000     0.482790000000     0.0664732  
H242     H      0.918340000000     0.880380000000     0.508780000000     0.0704423  
H243     H      0.042510000000     0.299290000000     0.429870000000     0.0384302  
H244     H      0.046160000000     0.182400000000     0.509920000000     0.0325144  
H245     H      0.992450000000     0.177450000000     0.411610000000     0.0386054  
H246     H      0.025710000000     0.382350000000     0.526750000000     0.0298973  
H247     H      0.070270000000     0.132110000000     0.478650000000     0.0266535  
H248     H      0.948370000000     0.332980000000     0.458500000000     0.0317926  
H249     H      0.054690000000     0.335710000000     0.494970000000     0.0321337  
H250     H      0.946470000000     0.399620000000     0.458980000000     0.0342824  
H251     H      0.989090000000     0.110710000000     0.417200000000     0.0138117  
H252     H      0.051980000000     0.235610000000     0.422710000000     0.0405101  
H253     H      0.044720000000     0.116580000000     0.515180000000     0.034478   
H254     H      0.963770000000     0.278510000000     0.509820000000     0.0415457  
H255     H      0.001900000000     0.164090000000     0.508310000000     0.0366328  
H256     H      0.053320000000     0.402390000000     0.493950000000     0.036194   
H257     H      0.982550000000     0.353120000000     0.431990000000     0.0361753  
H258     H      0.043420000000     0.354980000000     0.452840000000     0.0350012  
H259     H      0.970810000000     0.214860000000     0.500120000000     0.0385615  
H260     H      0.970570000000     0.161790000000     0.450670000000     0.0412814  
H261     H      0.950000000000     0.379680000000     0.501800000000     0.034129   
H262     H      0.033850000000     0.137530000000     0.378520000000     0.0586303  
H263     H      0.052210000000     0.099170000000     0.399950000000     0.0688426  
H264     H      0.064430000000     0.142900000000     0.414740000000     0.0693672  
N1       N      0.901790000000     0.510610000000     0.000490000000    -0.192491   
N2       N      0.827230000000     0.515880000000     0.000990000000    -0.109882   
N3       N      0.677450000000     0.529720000000     0.020710000000    -0.113651   
N4       N      0.603280000000     0.520170000000     0.023830000000    -0.181787   
N5       N      0.107740000000     0.494050000000     0.985660000000    -0.192941   
N6       N      0.182110000000     0.485520000000     0.986350000000    -0.110017   
N7       N      0.329530000000     0.461490000000     0.013020000000    -0.113627   
N8       N      0.403880000000     0.464840000000     0.020210000000    -0.182041   
N9       N      0.475970000000     0.591370000000     0.022660000000    -0.192814   
N10      N      0.467340000000     0.665580000000     0.019080000000    -0.110117   
N11      N      0.480430000000     0.815640000000     0.002370000000    -0.113039   
N12      N      0.486110000000     0.889960000000     0.004460000000    -0.181859   
N13      N      0.503850000000     0.095660000000     0.993010000000    -0.192644   
N14      N      0.512030000000     0.169970000000     0.992240000000    -0.110012   
N15      N      0.535730000000     0.317750000000     0.015670000000    -0.113658   
N16      N      0.530930000000     0.392090000000     0.021420000000    -0.181661   
N17      N      0.484780000000     0.988860000000     0.600760000000    -0.192425   
N18      N      0.473260000000     0.982970000000     0.674120000000    -0.109945   
N19      N      0.481800000000     0.974590000000     0.824730000000    -0.113053   
N20      N      0.487070000000     0.984570000000     0.898260000000    -0.181603   
N21      N      0.502720000000     0.995110000000     0.103130000000    -0.192216   
N22      N      0.507540000000     0.993990000000     0.177290000000    -0.110019   
N23      N      0.528380000000     0.010590000000     0.325490000000    -0.113756   
N24      N      0.524640000000     0.008510000000     0.399740000000    -0.181781   
N25      N      0.983810000000     0.490880000000     0.595890000000    -0.193204   
N26      N      0.981300000000     0.483700000000     0.669800000000    -0.110201   
N27      N      0.996380000000     0.494890000000     0.819050000000    -0.113157   
N28      N      0.997420000000     0.497560000000     0.893030000000    -0.18243    
N29      N      0.000530000000     0.522660000000     0.393560000000    -0.192958   
N30      N      0.006980000000     0.529660000000     0.319880000000    -0.110107   
N31      N      0.023680000000     0.512530000000     0.171160000000    -0.113507   
N32      N      0.016720000000     0.507700000000     0.097420000000    -0.182038   
N33      N      0.105620000000     0.997320000000     0.469860000000    -0.192819   
N34      N      0.179880000000     0.995610000000     0.461650000000    -0.110206   
N35      N      0.328810000000     0.984320000000     0.478550000000    -0.113543   
N36      N      0.402880000000     0.991060000000     0.483910000000    -0.182104   
N37      N      0.902230000000     0.027250000000     0.491790000000    -0.193486   
N38      N      0.828340000000     0.033050000000     0.501960000000    -0.110155   
N39      N      0.680090000000     0.012960000000     0.526750000000    -0.113601   
N40      N      0.605930000000     0.005210000000     0.520990000000    -0.182049   
N41      N      0.984990000000     0.908840000000     0.498890000000    -0.193198   
N42      N      0.977200000000     0.835100000000     0.508060000000    -0.110318   
N43      N      0.987930000000     0.684650000000     0.501940000000    -0.113392   
N44      N      0.987870000000     0.610390000000     0.504650000000    -0.182166   
N45      N      0.021510000000     0.108910000000     0.463540000000    -0.19446    
N46      N      0.022140000000     0.183360000000     0.459050000000    -0.110473   
N47      N      0.000260000000     0.330860000000     0.480620000000    -0.113497   
N48      N      0.996940000000     0.405070000000     0.484660000000    -0.182453   
O1       O      0.007020000000     0.053320000000     0.443840000000    -0.560035   
O2       O      0.991320000000     0.955620000000     0.461030000000    -0.561564   
O3       O      0.950300000000     0.012740000000     0.457740000000    -0.561407   
O4       O      0.049070000000     0.995570000000     0.447140000000    -0.556248   
O5       O      0.056760000000     0.005440000000     0.504630000000    -0.56485    
O6       O      0.958270000000     0.022300000000     0.515220000000    -0.560281   
O7       O      0.000130000000     0.964340000000     0.518530000000    -0.559421   
O8       O      0.015780000000     0.062060000000     0.501360000000    -0.563516   
O9       O      0.964930000000     0.456700000000     0.486990000000    -0.557836   
O10      O      0.960600000000     0.556640000000     0.496800000000    -0.558159   
O11      O      0.967000000000     0.511670000000     0.442720000000    -0.560002   
O12      O      0.958430000000     0.501600000000     0.541920000000    -0.557175   
O13      O      0.017440000000     0.500370000000     0.546600000000    -0.563472   
O14      O      0.025690000000     0.516840000000     0.448410000000    -0.560781   
O15      O      0.019160000000     0.558300000000     0.505310000000    -0.559821   
O16      O      0.023980000000     0.459110000000     0.490530000000    -0.561211   
O17      O      0.556390000000     0.972390000000     0.508180000000    -0.557606   
O18      O      0.458190000000     0.965810000000     0.486810000000    -0.557034   
O19      O      0.518070000000     0.974110000000     0.449100000000    -0.557386   
O20      O      0.496490000000     0.964210000000     0.546480000000    -0.555719   
O21      O      0.494590000000     0.023010000000     0.551830000000    -0.560749   
O22      O      0.509980000000     0.032470000000     0.453430000000    -0.557286   
O23      O      0.452730000000     0.024070000000     0.494960000000    -0.559651   
O24      O      0.551750000000     0.031200000000     0.511370000000    -0.558939   
O25      O      0.528260000000     0.992340000000     0.048260000000    -0.559475   
O26      O      0.520690000000     0.987740000000     0.948590000000    -0.55739    
O27      O      0.528790000000     0.040180000000     0.995190000000    -0.558565   
O28      O      0.520200000000     0.940200000000     0.001540000000    -0.558149   
O29      O      0.461340000000     0.945490000000     0.005190000000    -0.557188   
O30      O      0.470040000000     0.045540000000     0.999890000000    -0.559007   
O31      O      0.461820000000     0.992420000000     0.952800000000    -0.55747    
O32      O      0.469510000000     0.998280000000     0.052480000000    -0.55711    
O33      O      0.006940000000     0.475790000000     0.046890000000    -0.558221   
O34      O      0.998680000000     0.470740000000     0.947290000000    -0.559967   
O35      O      0.052650000000     0.469120000000     0.992600000000    -0.55975    
O36      O      0.952720000000     0.477300000000     0.001300000000    -0.561084   
O37      O      0.957130000000     0.536080000000     0.997530000000    -0.557948   
O38      O      0.057320000000     0.527940000000     0.989840000000    -0.559334   
O39      O      0.002560000000     0.529610000000     0.944070000000    -0.560237   
O40      O      0.012110000000     0.534550000000     0.043420000000    -0.55994    
O41      O      0.513970000000     0.442370000000     0.050920000000    -0.55648    
O42      O      0.492640000000     0.540660000000     0.051590000000    -0.558377   
O43      O      0.454080000000     0.480950000000     0.050410000000    -0.557522   
O44      O      0.552560000000     0.502220000000     0.052100000000    -0.55641    
O45      O      0.551930000000     0.508130000000     0.993610000000    -0.557092   
O46      O      0.456430000000     0.476160000000     0.991860000000    -0.557202   
O47      O      0.488190000000     0.539780000000     0.992980000000    -0.557449   
O48      O      0.520160000000     0.444390000000     0.992490000000    -0.556367   
V1       V      0.999210000000     0.003920000000     0.450120000000     1.38532    
V2       V      0.007940000000     0.013750000000     0.512250000000     1.39928    
V3       V      0.960350000000     0.506570000000     0.491980000000     1.38684    
V4       V      0.023920000000     0.508780000000     0.497860000000     1.39816    
V5       V      0.507480000000     0.966760000000     0.497460000000     1.38357    
V6       V      0.502090000000     0.030040000000     0.502960000000     1.39399    
V7       V      0.526830000000     0.989990000000     0.998260000000     1.38978    
V8       V      0.463350000000     0.995720000000     0.002790000000     1.38511    
V9       V      0.002520000000     0.470910000000     0.997220000000     1.39103    
V10      V      0.007420000000     0.534400000000     0.993640000000     1.39019    
V11      V      0.503290000000     0.491500000000     0.053660000000     1.38491    
V12      V      0.504230000000     0.492130000000     0.990330000000     1.38608    


