data_structure

_audit_creation_method RASPA-1.0
_audit_creation_date 2023-5-19
_audit_author_name 'Poobodin Mano'

_cell_length_a    37.8629
_cell_length_b    37.7979
_cell_length_c    37.862
_cell_angle_alpha 90
_cell_angle_beta  89.9998
_cell_angle_gamma 90
_cell_volume      54185.8

_symmetry_cell_setting          triclinic
_symmetry_space_group_name_Hall 'P 1'
_symmetry_space_group_name_H-M  'P 1'
_symmetry_Int_Tables_number     1

_symmetry_equiv_pos_as_xyz 'x,y,z'

loop_
_atom_site_label
_atom_site_type_symbol
_atom_site_fract_x
_atom_site_fract_y
_atom_site_fract_z
_atom_site_charge
C1       C      0.999180000000     0.069140000000     0.490790000000     0.472695   
C2       C      0.016640000000     0.936910000000     0.503890000000     0.47336    
C3       C      0.941740000000     0.993280000000     0.490010000000     0.472813   
C4       C      0.073530000000     0.012500000000     0.504370000000     0.471677   
C5       C      0.000580000000     0.438970000000     0.492780000000     0.472467   
C6       C      0.011610000000     0.569430000000     0.521400000000     0.474048   
C7       C      0.004770000000     0.519150000000     0.441470000000     0.471775   
C8       C      0.007390000000     0.489300000000     0.572120000000     0.472094   
C9       C      0.518030000000     0.017640000000     0.583580000000     0.473231   
C10      C      0.497690000000     0.003740000000     0.452040000000     0.473377   
C11      C      0.574110000000     0.010550000000     0.508440000000     0.471656   
C12      C      0.441620000000     0.010850000000     0.528220000000     0.471893   
C13      C      0.523640000000     0.082300000000     0.026210000000     0.472215   
C14      C      0.503340000000     0.950510000000     0.010580000000     0.471066   
C15      C      0.511550000000     0.008010000000     0.084450000000     0.47275    
C16      C      0.515330000000     0.024840000000     0.951690000000     0.473296   
C17      C      0.009220000000     0.502610000000     0.940600000000     0.471471   
C18      C      0.012710000000     0.519580000000     0.073450000000     0.471951   
C19      C      0.943680000000     0.514840000000     0.009310000000     0.472652   
C20      C      0.077270000000     0.507590000000     0.005630000000     0.472958   
C21      C      0.526400000000     0.450230000000     0.009730000000     0.471541   
C22      C      0.496590000000     0.581150000000     0.007130000000     0.471796   
C23      C      0.576490000000     0.530740000000     0.014560000000     0.473815   
C24      C      0.446470000000     0.501520000000     0.002200000000     0.471912   
C25      C      0.848840000000     0.488990000000     0.022760000000    -0.0321373  
C26      C      0.666870000000     0.524100000000     0.048600000000    -0.032519   
C27      C      0.630900000000     0.555220000000     0.988030000000    -0.00182137 
C28      C      0.629050000000     0.537900000000     0.052580000000    -0.00091778 
C29      C      0.738750000000     0.510670000000     0.002610000000    -0.0566871  
C30      C      0.780920000000     0.554700000000     0.044270000000    -0.0548584  
C31      C      0.723040000000     0.538450000000     0.021880000000     0.060465   
C32      C      0.668740000000     0.541280000000     0.986670000000    -0.0317401  
C33      C      0.796840000000     0.527900000000     0.024250000000     0.0602326  
C34      C      0.851330000000     0.547690000000     0.997690000000    -0.0319769  
C35      C      0.775390000000     0.506150000000     0.002920000000    -0.0564779  
C36      C      0.890550000000     0.551810000000     0.006040000000    -0.000674842
C37      C      0.888360000000     0.488950000000     0.031290000000    -0.00189977 
C38      C      0.744480000000     0.560110000000     0.042860000000    -0.0552274  
C39      C      0.352400000000     0.478890000000     0.024910000000    -0.0324132  
C40      C      0.169000000000     0.470130000000     0.006690000000    -0.0320378  
C41      C      0.133920000000     0.538650000000     0.999970000000    -6.7103e-05 
C42      C      0.131000000000     0.473930000000     0.019930000000    -0.00179989 
C43      C      0.245980000000     0.525550000000     0.025850000000    -0.0547937  
C44      C      0.278900000000     0.479480000000     0.978360000000    -0.0566794  
C45      C      0.225280000000     0.502620000000     0.005490000000     0.060209   
C46      C      0.171130000000     0.530790000000     0.986600000000    -0.0322659  
C47      C      0.299520000000     0.502890000000     0.998730000000     0.0608606  
C48      C      0.354120000000     0.495970000000     0.963770000000    -0.0319211  
C49      C      0.282610000000     0.525930000000     0.022260000000    -0.0550597  
C50      C      0.393530000000     0.505290000000     0.965240000000    -0.00140082 
C51      C      0.390490000000     0.489700000000     0.031880000000     0.000368267
C52      C      0.242030000000     0.480090000000     0.980960000000    -0.0561169  
C53      C      0.519130000000     0.854040000000     0.993080000000    -0.0320836  
C54      C      0.479410000000     0.671490000000     0.040970000000    -0.0319562  
C55      C      0.491150000000     0.636700000000     0.973270000000    -0.00105779 
C56      C      0.468880000000     0.632680000000     0.036300000000    -0.00234649 
C57      C      0.460010000000     0.749660000000     0.987310000000    -0.0545575  
C58      C      0.507070000000     0.781570000000     0.034260000000    -0.0543138  
C59      C      0.480590000000     0.728320000000     0.009570000000     0.0600284  
C60      C      0.501550000000     0.675100000000     0.980890000000    -0.0322458  
C61      C      0.486000000000     0.802940000000     0.012530000000     0.0598181  
C62      C      0.457810000000     0.861690000000     0.008350000000    -0.0321169  
C63      C      0.463070000000     0.786530000000     0.988180000000    -0.0561682  
C64      C      0.463360000000     0.900200000000     0.019770000000    -0.00199461 
C65      C      0.529070000000     0.891250000000     0.005270000000    -0.000611427
C66      C      0.505070000000     0.744700000000     0.032360000000    -0.0566394  
C67      C      0.542530000000     0.357690000000     0.978880000000    -0.0320219  
C68      C      0.563180000000     0.170450000000     0.011710000000    -0.0325655  
C69      C      0.500650000000     0.140400000000     0.045210000000    -0.00214678 
C70      C      0.564810000000     0.133020000000     0.027270000000    -0.00119866 
C71      C      0.520550000000     0.246710000000     0.999000000000    -0.0559757  
C72      C      0.569030000000     0.285570000000     0.038850000000    -0.0548692  
C73      C      0.541220000000     0.229340000000     0.024710000000     0.0597329  
C74      C      0.501980000000     0.177600000000     0.029450000000    -0.0317258  
C75      C      0.547270000000     0.303300000000     0.014660000000     0.0598233  
C76      C      0.525230000000     0.357260000000     0.040440000000    -0.032244   
C77      C      0.522770000000     0.283440000000     0.994800000000    -0.0561599  
C78      C      0.534530000000     0.396250000000     0.045130000000    -0.0009012  
C79      C      0.551130000000     0.397380000000     0.980020000000    -0.00240433 
C80      C      0.565790000000     0.249140000000     0.044070000000    -0.0548614  
C81      C      0.484950000000     0.038910000000     0.858890000000    -0.0320839  
C82      C      0.510980000000     0.055030000000     0.673470000000    -0.0324097  
C83      C      0.538330000000     0.991350000000     0.639660000000    -0.0017482  
C84      C      0.523870000000     0.056880000000     0.635230000000    -0.00073113 
C85      C      0.500330000000     0.012510000000     0.748840000000    -0.0567049  
C86      C      0.545810000000     0.057520000000     0.785690000000    -0.0548906  
C87      C      0.526920000000     0.030990000000     0.730400000000     0.0604545  
C88      C      0.525600000000     0.992690000000     0.677940000000    -0.0317068  
C89      C      0.520300000000     0.038240000000     0.804360000000     0.0603103  
C90      C      0.544350000000     0.015180000000     0.858620000000    -0.0326248  
C91      C      0.497780000000     0.015250000000     0.785580000000    -0.0565411  
C92      C      0.550480000000     0.025340000000     0.897130000000    -0.000420099
C93      C      0.487420000000     0.049010000000     0.897980000000    -0.00201743 
C94      C      0.549310000000     0.053680000000     0.749210000000    -0.0551213  
C95      C      0.509540000000     0.968640000000     0.362000000000    -0.0323268  
C96      C      0.540700000000     0.991940000000     0.177730000000    -0.031827   
C97      C      0.475890000000     0.006440000000     0.138530000000    -0.000578101
C98      C      0.539500000000     0.983830000000     0.138080000000    -0.00195051 
C99      C      0.478480000000     0.967990000000     0.248010000000    -0.0548875  
C100     C      0.520660000000     0.013140000000     0.288440000000    -0.0566939  
C101     C      0.503820000000     0.989100000000     0.231160000000     0.0606375  
C102     C      0.481030000000     0.014770000000     0.177590000000    -0.0324082  
C103     C      0.494110000000     0.992930000000     0.305010000000     0.0606306  
C104     C      0.490070000000     0.029760000000     0.358280000000    -0.0318665  
C105     C      0.473470000000     0.970110000000     0.284450000000    -0.0550908  
C106     C      0.475820000000     0.029060000000     0.396030000000    -0.00218177 
C107     C      0.495430000000     0.964940000000     0.399690000000    -0.000900889
C108     C      0.524740000000     0.012050000000     0.251740000000    -0.0566763  
C109     C      0.974720000000     0.478460000000     0.663610000000    -0.0318325  
C110     C      0.992690000000     0.464540000000     0.850940000000    -0.0320492  
C111     C      0.027060000000     0.525870000000     0.882710000000    -0.0020228  
C112     C      0.004720000000     0.462470000000     0.889540000000    -0.00133245 
C113     C      0.990300000000     0.505760000000     0.773130000000    -0.0561334  
C114     C      0.029640000000     0.452970000000     0.739630000000    -0.0547704  
C115     C      0.012830000000     0.484010000000     0.793350000000     0.059828   
C116     C      0.014550000000     0.524290000000     0.844380000000    -0.0320551  
C117     C      0.008260000000     0.475320000000     0.719220000000     0.059761   
C118     C      0.037600000000     0.490970000000     0.664660000000    -0.0322597  
C119     C      0.988900000000     0.502190000000     0.736380000000    -0.0559399  
C120     C      0.042120000000     0.478910000000     0.626330000000    -0.00122482 
C121     C      0.976300000000     0.466710000000     0.624960000000    -0.00221866 
C122     C      0.032170000000     0.457490000000     0.776160000000    -0.0547752  
C123     C      0.970230000000     0.536560000000     0.350640000000    -0.0320611  
C124     C      0.996440000000     0.557980000000     0.162430000000    -0.0321707  
C125     C      0.028340000000     0.494870000000     0.131560000000    -0.00214692 
C126     C      0.011320000000     0.559720000000     0.124810000000    -0.00136619 
C127     C      0.985610000000     0.515220000000     0.238950000000    -0.0560597  
C128     C      0.027430000000     0.563110000000     0.276490000000    -0.0547851  
C129     C      0.010900000000     0.535730000000     0.220790000000     0.0599214  
C130     C      0.013300000000     0.496480000000     0.168970000000    -0.031935   
C131     C      0.003740000000     0.541420000000     0.294960000000     0.0598458  
C132     C      0.031460000000     0.518370000000     0.347400000000    -0.0322801  
C133     C      0.982830000000     0.517250000000     0.275760000000    -0.0561134  
C134     C      0.037930000000     0.527160000000     0.386190000000    -0.000788332
C135     C      0.973170000000     0.544720000000     0.390250000000    -0.00227594 
C136     C      0.031230000000     0.560040000000     0.239930000000    -0.0548891  
C137     C      0.348200000000     0.984470000000     0.519630000000    -0.0323742  
C138     C      0.160730000000     0.024100000000     0.548410000000    -0.0322192  
C139     C      0.132800000000     0.012660000000     0.477530000000    -0.0011805  
C140     C      0.123020000000     0.035980000000     0.539820000000    -0.00230044 
C141     C      0.243720000000     0.039660000000     0.500230000000    -0.0544289  
C142     C      0.270840000000     0.997100000000     0.554050000000    -0.0544922  
C143     C      0.220320000000     0.021430000000     0.522430000000     0.0597886  
C144     C      0.169540000000     0.000790000000     0.489440000000    -0.0324675  
C145     C      0.294170000000     0.016230000000     0.532540000000     0.0598749  
C146     C      0.351280000000     0.046940000000     0.534490000000    -0.0318625  
C147     C      0.280230000000     0.036590000000     0.504630000000    -0.0565202  
C148     C      0.388800000000     0.043130000000     0.548820000000    -0.00217047 
C149     C      0.385540000000     0.977860000000     0.533880000000    -0.00108386 
C150     C      0.234340000000     0.999020000000     0.548710000000    -0.0560786  
C151     C      0.851770000000     0.008380000000     0.456940000000    -0.0328334  
C152     C      0.666240000000     0.976100000000     0.504660000000    -0.0314972  
C153     C      0.628900000000     0.042770000000     0.493890000000    -0.00121448 
C154     C      0.630400000000     0.981500000000     0.522190000000    -0.00183817 
C155     C      0.734470000000     0.981760000000     0.468440000000    -0.0561013  
C156     C      0.781920000000     0.025060000000     0.504960000000    -0.0570981  
C157     C      0.721500000000     0.007260000000     0.492340000000     0.0596258  
C158     C      0.664910000000     0.034040000000     0.477390000000    -0.0323153  
C159     C      0.794870000000     0.996880000000     0.484280000000     0.0605862  
C160     C      0.849240000000     0.988220000000     0.517980000000    -0.0313922  
C161     C      0.770840000000     0.976250000000     0.465090000000    -0.0550385  
C162     C      0.885820000000     0.971500000000     0.515430000000    -0.0018527  
C163     C      0.888620000000     0.992120000000     0.451930000000    -0.000769488
C164     C      0.745560000000     0.029630000000     0.509420000000    -0.0542946  
C165     C      0.027210000000     0.841840000000     0.479980000000    -0.0322203  
C166     C      0.045900000000     0.659940000000     0.514350000000    -0.032384   
C167     C      0.985170000000     0.624250000000     0.545480000000    -0.00201959 
C168     C      0.049680000000     0.622000000000     0.527690000000    -0.000787993
C169     C      0.000640000000     0.733540000000     0.504140000000    -0.0564978  
C170     C      0.048440000000     0.772630000000     0.544620000000    -0.0549747  
C171     C      0.020920000000     0.716380000000     0.530260000000     0.0603936  
C172     C      0.984370000000     0.662540000000     0.532380000000    -0.031853   
C173     C      0.027800000000     0.789970000000     0.519250000000     0.0603635  
C174     C      0.007900000000     0.846630000000     0.540800000000    -0.0324767  
C175     C      0.003250000000     0.770130000000     0.499450000000    -0.0565107  
C176     C      0.019440000000     0.885230000000     0.543230000000    -0.000477293
C177     C      0.038440000000     0.880730000000     0.478820000000    -0.00196933 
C178     C      0.044780000000     0.736360000000     0.550310000000    -0.0550831  
C179     C      0.975760000000     0.163480000000     0.511030000000    -0.0321951  
C180     C      0.962230000000     0.346930000000     0.484100000000    -0.0318717  
C181     C      0.030740000000     0.382920000000     0.481590000000     6.56636e-05
C182     C      0.963960000000     0.385660000000     0.495890000000    -0.00132053 
C183     C      0.017510000000     0.272720000000     0.512380000000    -0.055029   
C184     C      0.977440000000     0.235650000000     0.462640000000    -0.0565681  
C185     C      0.995940000000     0.291480000000     0.488910000000     0.0608068  
C186     C      0.023930000000     0.345300000000     0.468810000000    -0.0323367  
C187     C      0.999730000000     0.217010000000     0.485950000000     0.0608573  
C188     C      0.000020000000     0.161280000000     0.452240000000    -0.0320061  
C189     C      0.019630000000     0.235960000000     0.510710000000    -0.0550694  
C190     C      0.011200000000     0.122530000000     0.456040000000    -0.00174746 
C191     C      0.986970000000     0.125720000000     0.519670000000     0.000143486
C192     C      0.976340000000     0.272650000000     0.463420000000    -0.0566216  
H1       H      0.732830000000     0.581290000000     0.058200000000     0.0426506  
H2       H      0.835040000000     0.471700000000     0.042150000000     0.0327953  
H3       H      0.839200000000     0.574540000000     0.997620000000     0.0327286  
H4       H      0.631860000000     0.584380000000     0.991790000000     0.0327177  
H5       H      0.891710000000     0.492800000000     0.060220000000     0.0338498  
H6       H      0.680330000000     0.526650000000     0.074610000000     0.0329246  
H7       H      0.683720000000     0.556690000000     0.966600000000     0.0327511  
H8       H      0.614710000000     0.520540000000     0.071480000000     0.0359981  
H9       H      0.903420000000     0.565950000000     0.983700000000     0.0355482  
H10      H      0.797010000000     0.571920000000     0.060510000000     0.0426616  
H11      H      0.899290000000     0.462430000000     0.024770000000     0.0368313  
H12      H      0.723020000000     0.492810000000     0.986820000000     0.0390805  
H13      H      0.845160000000     0.477580000000     0.995910000000     0.0348822  
H14      H      0.618000000000     0.550110000000     0.962170000000     0.0372011  
H15      H      0.893450000000     0.568650000000     0.029960000000     0.0354865  
H16      H      0.666420000000     0.495560000000     0.041240000000     0.0375808  
H17      H      0.667850000000     0.513100000000     0.978230000000     0.0362848  
H18      H      0.786650000000     0.485600000000     0.986580000000     0.0388155  
H19      H      0.847850000000     0.536080000000     0.970850000000     0.0367041  
H20      H      0.629990000000     0.564990000000     0.063980000000     0.0342534  
H21      H      0.226910000000     0.462560000000     0.964210000000     0.0387129  
H22      H      0.337610000000     0.480950000000     0.050270000000     0.0327104  
H23      H      0.341330000000     0.512400000000     0.943010000000     0.0329448  
H24      H      0.135840000000     0.553370000000     0.025340000000     0.0355749  
H25      H      0.390480000000     0.514310000000     0.048010000000     0.0374404  
H26      H      0.182600000000     0.449720000000     0.022950000000     0.0326581  
H27      H      0.186480000000     0.555920000000     0.987120000000     0.0328829  
H28      H      0.116210000000     0.449500000000     0.012920000000     0.036844   
H29      H      0.407300000000     0.492000000000     0.942930000000     0.0353628  
H30      H      0.291020000000     0.460900000000     0.960360000000     0.0387131  
H31      H      0.403510000000     0.468830000000     0.048020000000     0.03334    
H32      H      0.233550000000     0.543370000000     0.044490000000     0.0428505  
H33      H      0.351150000000     0.450800000000     0.016080000000     0.0358157  
H34      H      0.120570000000     0.556250000000     0.980560000000     0.0351599  
H35      H      0.396450000000     0.534250000000     0.960780000000     0.034807   
H36      H      0.168340000000     0.460820000000     0.978800000000     0.0350302  
H37      H      0.170140000000     0.521310000000     0.958750000000     0.0368494  
H38      H      0.298070000000     0.543820000000     0.038400000000     0.0431311  
H39      H      0.351330000000     0.467670000000     0.956050000000     0.0333498  
H40      H      0.131420000000     0.475660000000     0.049250000000     0.0334632  
H41      H      0.522490000000     0.729320000000     0.048940000000     0.0392979  
H42      H      0.542870000000     0.836890000000     0.995930000000     0.0323466  
H43      H      0.435260000000     0.850550000000     0.023570000000     0.0331866  
H44      H      0.465300000000     0.636510000000     0.959320000000     0.0345909  
H45      H      0.542520000000     0.889370000000     0.031330000000     0.0362344  
H46      H      0.461350000000     0.683860000000     0.060590000000     0.0333949  
H47      H      0.500260000000     0.690140000000     0.955640000000     0.032511   
H48      H      0.473700000000     0.618460000000     0.061540000000     0.0374461  
H49      H      0.441360000000     0.916480000000     0.009040000000     0.0365072  
H50      H      0.525560000000     0.793650000000     0.052460000000     0.0423305  
H51      H      0.548440000000     0.902530000000     0.986250000000     0.0347615  
H52      H      0.441790000000     0.737530000000     0.968880000000     0.042344   
H53      H      0.511620000000     0.854360000000     0.964620000000     0.0363817  
H54      H      0.511200000000     0.625010000000     0.955250000000     0.0359126  
H55      H      0.461520000000     0.901620000000     0.049060000000     0.0341977  
H56      H      0.506780000000     0.672230000000     0.051660000000     0.0360794  
H57      H      0.529260000000     0.676180000000     0.990760000000     0.0372629  
H58      H      0.447230000000     0.801920000000     0.970060000000     0.0389113  
H59      H      0.450730000000     0.861370000000     0.979800000000     0.0345847  
H60      H      0.440030000000     0.631470000000     0.030930000000     0.0335564  
H61      H      0.582210000000     0.236260000000     0.063650000000     0.0423311  
H62      H      0.559660000000     0.344870000000     0.958720000000     0.0327643  
H63      H      0.528700000000     0.343920000000     0.066440000000     0.0327356  
H64      H      0.504190000000     0.142530000000     0.074280000000     0.0329846  
H65      H      0.580270000000     0.400550000000     0.981740000000     0.0334141  
H66      H      0.590140000000     0.182130000000     0.013080000000     0.0326678  
H67      H      0.483170000000     0.194750000000     0.044190000000     0.0326364  
H68      H      0.581980000000     0.116440000000     0.010120000000     0.0356466  
H69      H      0.515230000000     0.408100000000     0.063850000000     0.0364682  
H70      H      0.587750000000     0.300350000000     0.054650000000     0.042457   
H71      H      0.542480000000     0.409660000000     0.954770000000     0.036884   
H72      H      0.501860000000     0.232340000000     0.982870000000     0.0387545  
H73      H      0.514490000000     0.354640000000     0.970580000000     0.0353339  
H74      H      0.473960000000     0.129100000000     0.040460000000     0.0372827  
H75      H      0.561180000000     0.398240000000     0.057310000000     0.0345232  
H76      H      0.555200000000     0.169220000000     0.983420000000     0.0376033  
H77      H      0.493270000000     0.176060000000     0.001400000000     0.0358293  
H78      H      0.505070000000     0.296030000000     0.976270000000     0.0387396  
H79      H      0.497010000000     0.354510000000     0.032530000000     0.0373289  
H80      H      0.577240000000     0.134390000000     0.053840000000     0.0346264  
H81      H      0.569600000000     0.068440000000     0.735440000000     0.042615   
H82      H      0.466500000000     0.057500000000     0.845520000000     0.0327397  
H83      H      0.570380000000     0.015410000000     0.844930000000     0.0328043  
H84      H      0.567670000000     0.992730000000     0.639540000000     0.0329278  
H85      H      0.492030000000     0.078000000000     0.899890000000     0.0333738  
H86      H      0.514640000000     0.081610000000     0.685620000000     0.0327016  
H87      H      0.540460000000     0.972620000000     0.693490000000     0.0327581  
H88      H      0.506520000000     0.075440000000     0.620440000000     0.0356263  
H89      H      0.566810000000     0.004360000000     0.909710000000     0.0359172  
H90      H      0.563640000000     0.075000000000     0.799700000000     0.0425644  
H91      H      0.461570000000     0.043430000000     0.910750000000     0.0370108  
H92      H      0.481970000000     0.995390000000     0.735230000000     0.0390873  
H93      H      0.473830000000     0.011710000000     0.857090000000     0.0352402  
H94      H      0.530740000000     0.965390000000     0.628140000000     0.0371671  
H95      H      0.565800000000     0.050430000000     0.898050000000     0.0348003  
H96      H      0.482280000000     0.048550000000     0.674120000000     0.037217   
H97      H      0.497060000000     0.985640000000     0.678400000000     0.0358522  
H98      H      0.478190000000     0.999370000000     0.798990000000     0.0389604  
H99      H      0.533440000000     0.987850000000     0.856980000000     0.0374435  
H100     H      0.551110000000     0.067900000000     0.634930000000     0.0348352  
H101     H      0.544120000000     0.029260000000     0.239730000000     0.0387774  
H102     H      0.508370000000     0.942160000000     0.349160000000     0.0328151  
H103     H      0.474190000000     0.048910000000     0.342580000000     0.0327282  
H104     H      0.460560000000     0.981460000000     0.136050000000     0.0353602  
H105     H      0.469070000000     0.952000000000     0.398710000000     0.0343889  
H106     H      0.559100000000     0.972990000000     0.190660000000     0.0328837  
H107     H      0.454700000000     0.013640000000     0.190640000000     0.0327975  
H108     H      0.565410000000     0.991030000000     0.126250000000     0.0369545  
H109     H      0.480490000000     0.055350000000     0.408340000000     0.0373842  
H110     H      0.537740000000     0.030390000000     0.303500000000     0.0388177  
H111     H      0.513540000000     0.947330000000     0.414730000000     0.0362465  
H112     H      0.461860000000     0.950520000000     0.232580000000     0.0428891  
H113     H      0.537650000000     0.977320000000     0.362590000000     0.0373765  
H114     H      0.459860000000     0.028010000000     0.126560000000     0.0357809  
H115     H      0.446760000000     0.024930000000     0.394930000000     0.0330364  
H116     H      0.551300000000     0.019170000000     0.181280000000     0.0348604  
H117     H      0.491610000000     0.042100000000     0.180810000000     0.036973   
H118     H      0.453270000000     0.954020000000     0.296790000000     0.0427132  
H119     H      0.517910000000     0.039180000000     0.359100000000     0.0357094  
H120     H      0.536080000000     0.954830000000     0.134540000000     0.0338664  
H121     H      0.049380000000     0.440280000000     0.791230000000     0.0425005  
H122     H      0.952980000000     0.463880000000     0.676990000000     0.0327607  
H123     H      0.062910000000     0.486000000000     0.678800000000     0.0328713  
H124     H      0.056220000000     0.522340000000     0.883190000000     0.0335588  
H125     H      0.977130000000     0.437310000000     0.624190000000     0.0333314  
H126     H      0.993090000000     0.437280000000     0.839800000000     0.0326773  
H127     H      0.031610000000     0.542000000000     0.828250000000     0.0327944  
H128     H      0.984510000000     0.447680000000     0.904930000000     0.0353371  
H129     H      0.062640000000     0.495690000000     0.613650000000     0.0362735  
H130     H      0.045000000000     0.432390000000     0.726970000000     0.0425338  
H131     H      0.951580000000     0.475140000000     0.611540000000     0.0372671  
H132     H      0.974360000000     0.526070000000     0.785340000000     0.0386584  
H133     H      0.968540000000     0.507250000000     0.664140000000     0.0358471  
H134     H      0.021390000000     0.552750000000     0.893190000000     0.0372906  
H135     H      0.051770000000     0.451120000000     0.626210000000     0.0346612  
H136     H      0.965040000000     0.474530000000     0.849510000000     0.0368608  
H137     H      0.986940000000     0.534370000000     0.843230000000     0.0353091  
H138     H      0.972560000000     0.520470000000     0.721720000000     0.0386528  
H139     H      0.032210000000     0.519940000000     0.665520000000     0.0376041  
H140     H      0.029770000000     0.447160000000     0.890840000000     0.0354335  
H141     H      0.050520000000     0.576330000000     0.226450000000     0.0425548  
H142     H      0.949800000000     0.554140000000     0.338890000000     0.0327724  
H143     H      0.056910000000     0.521620000000     0.333030000000     0.0328691  
H144     H      0.057590000000     0.497010000000     0.133160000000     0.033351   
H145     H      0.975430000000     0.573860000000     0.393640000000     0.0334676  
H146     H      0.998260000000     0.584890000000     0.174230000000     0.0327406  
H147     H      0.027940000000     0.477270000000     0.185760000000     0.032745   
H148     H      0.993740000000     0.576770000000     0.108540000000     0.0356699  
H149     H      0.056820000000     0.507400000000     0.397010000000     0.036511   
H150     H      0.044010000000     0.581580000000     0.290750000000     0.0425536  
H151     H      0.948350000000     0.536270000000     0.403480000000     0.0368877  
H152     H      0.968780000000     0.496740000000     0.225110000000     0.03871    
H153     H      0.961410000000     0.508630000000     0.347660000000     0.0353043  
H154     H      0.022150000000     0.468480000000     0.120170000000     0.0372945  
H155     H      0.050620000000     0.553640000000     0.387950000000     0.034559   
H156     H      0.968060000000     0.550230000000     0.161700000000     0.0372228  
H157     H      0.985050000000     0.488390000000     0.167980000000     0.0356104  
H158     H      0.964620000000     0.499620000000     0.288920000000     0.0386988  
H159     H      0.023020000000     0.490250000000     0.344690000000     0.0373598  
H160     H      0.037780000000     0.572450000000     0.125670000000     0.0351842  
H161     H      0.217370000000     0.983380000000     0.565540000000     0.039086   
H162     H      0.332650000000     0.959690000000     0.522910000000     0.0326932  
H163     H      0.337890000000     0.068820000000     0.548900000000     0.0331517  
H164     H      0.135300000000     0.038030000000     0.462870000000     0.0348414  
H165     H      0.383500000000     0.967190000000     0.561170000000     0.0345798  
H166     H      0.171720000000     0.041980000000     0.569000000000     0.0331898  
H167     H      0.187170000000     0.000760000000     0.465900000000     0.032405   
H168     H      0.106100000000     0.031280000000     0.563350000000     0.0372647  
H169     H      0.403810000000     0.067620000000     0.542590000000     0.0373534  
H170     H      0.281090000000     0.980520000000     0.575000000000     0.0422699  
H171     H      0.398510000000     0.957450000000     0.517160000000     0.0358003  
H172     H      0.233500000000     0.056190000000     0.479210000000     0.0421227  
H173     H      0.349420000000     0.990790000000     0.490920000000     0.0374683  
H174     H      0.122150000000     0.992510000000     0.458950000000     0.0362096  
H175     H      0.387390000000     0.040930000000     0.578080000000     0.0328929  
H176     H      0.159530000000     0.996780000000     0.559340000000     0.0358324  
H177     H      0.168370000000     0.973290000000     0.499980000000     0.037459   
H178     H      0.297260000000     0.050610000000     0.486500000000     0.0391356  
H179     H      0.353070000000     0.054160000000     0.506060000000     0.0361299  
H180     H      0.123270000000     0.064980000000     0.534870000000     0.0336534  
H181     H      0.736040000000     0.050090000000     0.527050000000     0.0422795  
H182     H      0.837900000000     0.007990000000     0.431030000000     0.0325973  
H183     H      0.833340000000     0.972960000000     0.537460000000     0.0332864  
H184     H      0.633130000000     0.060230000000     0.517150000000     0.0353904  
H185     H      0.885690000000     0.965830000000     0.439080000000     0.0344197  
H186     H      0.682090000000     0.957760000000     0.521350000000     0.0331547  
H187     H      0.679670000000     0.059230000000     0.473650000000     0.0324372  
H188     H      0.615800000000     0.955990000000     0.521400000000     0.0374178  
H189     H      0.899260000000     0.974010000000     0.541410000000     0.0372959  
H190     H      0.799680000000     0.042580000000     0.518880000000     0.0393475  
H191     H      0.904200000000     0.009390000000     0.433950000000     0.0351412  
H192     H      0.716730000000     0.965010000000     0.453580000000     0.0389769  
H193     H      0.854300000000     0.036440000000     0.465600000000     0.0371866  
H194     H      0.612890000000     0.057800000000     0.474350000000     0.0347938  
H195     H      0.882540000000     0.942770000000     0.510000000000     0.0326584  
H196     H      0.661990000000     0.963460000000     0.478440000000     0.0354466  
H197     H      0.661150000000     0.021630000000     0.450970000000     0.0364316  
H198     H      0.780370000000     0.955180000000     0.448210000000     0.0423727  
H199     H      0.852350000000     0.015760000000     0.527890000000     0.0364509  
H200     H      0.634710000000     0.988160000000     0.550480000000     0.0333536  
H201     H      0.060920000000     0.723580000000     0.570180000000     0.0424746  
H202     H      0.044060000000     0.826580000000     0.461330000000     0.0328566  
H203     H      0.009750000000     0.834860000000     0.567710000000     0.0326633  
H204     H      0.988660000000     0.624500000000     0.574640000000     0.0330944  
H205     H      0.067660000000     0.882080000000     0.481490000000     0.0331799  
H206     H      0.072180000000     0.673000000000     0.516430000000     0.0328031  
H207     H      0.964740000000     0.677590000000     0.548280000000     0.0327098  
H208     H      0.068270000000     0.607740000000     0.509940000000     0.0366411  
H209     H      0.000180000000     0.899610000000     0.560150000000     0.0357665  
H210     H      0.067110000000     0.787500000000     0.560410000000     0.0425438  
H211     H      0.031550000000     0.891740000000     0.452480000000     0.037074   
H212     H      0.982500000000     0.719020000000     0.487540000000     0.0390278  
H213     H      0.999290000000     0.840070000000     0.470940000000     0.0356548  
H214     H      0.959210000000     0.611750000000     0.539810000000     0.0372077  
H215     H      0.045650000000     0.886490000000     0.556430000000     0.0349876  
H216     H      0.037930000000     0.659890000000     0.486020000000     0.0377481  
H217     H      0.975610000000     0.662410000000     0.504320000000     0.0358591  
H218     H      0.986270000000     0.782570000000     0.480160000000     0.0390026  
H219     H      0.979850000000     0.845010000000     0.532060000000     0.0373151  
H220     H      0.061500000000     0.622560000000     0.554570000000     0.0341066  
H221     H      0.959950000000     0.286280000000     0.444420000000     0.0386338  
H222     H      0.974660000000     0.178650000000     0.536220000000     0.0328215  
H223     H      0.018150000000     0.174490000000     0.433230000000     0.0327503  
H224     H      0.045620000000     0.381700000000     0.506900000000     0.0371098  
H225     H      0.010270000000     0.126650000000     0.537550000000     0.0361327  
H226     H      0.940810000000     0.333470000000     0.499090000000     0.0327227  
H227     H      0.049050000000     0.330150000000     0.471160000000     0.0327992  
H228     H      0.941480000000     0.400260000000     0.483810000000     0.0357877  
H229     H      0.003400000000     0.108040000000     0.431690000000     0.0361243  
H230     H      0.961170000000     0.221880000000     0.443620000000     0.0386074  
H231     H      0.965210000000     0.112550000000     0.534420000000     0.0345907  
H232     H      0.033080000000     0.286810000000     0.531830000000     0.043188   
H233     H      0.948790000000     0.163640000000     0.499230000000     0.0361161  
H234     H      0.047980000000     0.396610000000     0.462100000000     0.0338464  
H235     H      0.040510000000     0.121350000000     0.457590000000     0.0345377  
H236     H      0.955340000000     0.346030000000     0.455510000000     0.0336634  
H237     H      0.016120000000     0.345420000000     0.440430000000     0.0358903  
H238     H      0.036570000000     0.222030000000     0.529100000000     0.0430665  
H239     H      0.972800000000     0.162220000000     0.441140000000     0.0339797  
H240     H      0.960010000000     0.386750000000     0.524990000000     0.0343265  
N1       N      0.907800000000     0.517390000000     0.012740000000    -0.181547   
N2       N      0.834950000000     0.525280000000     0.024720000000    -0.113097   
N3       N      0.685420000000     0.545010000000     0.021630000000    -0.113613   
N4       N      0.611370000000     0.539470000000     0.017910000000    -0.182089   
N5       N      0.410860000000     0.496210000000     0.999160000000    -0.18103    
N6       N      0.337680000000     0.502740000000     0.998250000000    -0.112355   
N7       N      0.187370000000     0.504260000000     0.009680000000    -0.113069   
N8       N      0.113360000000     0.505950000000     0.005950000000    -0.181702   
N9       N      0.498020000000     0.914710000000     0.008900000000    -0.181003   
N10      N      0.490030000000     0.840990000000     0.015030000000    -0.112699   
N11      N      0.477060000000     0.690250000000     0.006910000000    -0.11333    
N12      N      0.487730000000     0.616270000000     0.006320000000    -0.181366   
N13      N      0.534960000000     0.415030000000     0.010910000000    -0.181304   
N14      N      0.548660000000     0.341600000000     0.013800000000    -0.113261   
N15      N      0.538080000000     0.191860000000     0.032160000000    -0.113273   
N16      N      0.529090000000     0.117790000000     0.030910000000    -0.181441   
N17      N      0.516760000000     0.030580000000     0.916040000000    -0.181761   
N18      N      0.520150000000     0.040820000000     0.842470000000    -0.113201   
N19      N      0.531580000000     0.028270000000     0.692590000000    -0.113455   
N20      N      0.524460000000     0.021410000000     0.618910000000    -0.182007   
N21      N      0.491680000000     0.999910000000     0.416640000000    -0.181746   
N22      N      0.487670000000     0.994180000000     0.342630000000    -0.113408   
N23      N      0.505100000000     0.988590000000     0.193000000000    -0.113061   
N24      N      0.509990000000     0.002060000000     0.120070000000    -0.181677   
N25      N      0.008210000000     0.480490000000     0.607180000000    -0.181509   
N26      N      0.008660000000     0.471040000000     0.681180000000    -0.113291   
N27      N      0.016760000000     0.487720000000     0.831240000000    -0.113077   
N28      N      0.010880000000     0.497920000000     0.904780000000    -0.18113    
N29      N      0.004550000000     0.527920000000     0.406370000000    -0.181404   
N30      N      0.004530000000     0.542400000000     0.333200000000    -0.113233   
N31      N      0.017120000000     0.532520000000     0.183180000000    -0.113186   
N32      N      0.015030000000     0.524080000000     0.109250000000    -0.181306   
N33      N      0.406090000000     0.011020000000     0.534830000000    -0.181581   
N34      N      0.331720000000     0.013590000000     0.539400000000    -0.113413   
N35      N      0.182750000000     0.025400000000     0.516350000000    -0.113063   
N36      N      0.109060000000     0.018120000000     0.508010000000    -0.181344   
N37      N      0.906310000000     0.987380000000     0.486320000000    -0.181769   
N38      N      0.831940000000     0.987650000000     0.483110000000    -0.113482   
N39      N      0.684400000000     0.010310000000     0.501060000000    -0.113211   
N40      N      0.610150000000     0.010550000000     0.505630000000    -0.181363   
N41      N      0.022430000000     0.901410000000     0.507840000000    -0.181801   
N42      N      0.031200000000     0.827950000000     0.516100000000    -0.113221   
N43      N      0.019660000000     0.678580000000     0.536030000000    -0.113533   
N44      N      0.014880000000     0.604510000000     0.529620000000    -0.182094   
N45      N      0.996470000000     0.105100000000     0.487850000000    -0.181467   
N46      N      0.001700000000     0.178850000000     0.486800000000    -0.112913   
N47      N      0.996290000000     0.329640000000     0.490850000000    -0.112566   
N48      N      0.997870000000     0.403290000000     0.487380000000    -0.181196   
O1       O      0.006270000000     0.050370000000     0.463390000000    -0.556339   
O2       O      0.016850000000     0.950850000000     0.472920000000    -0.555723   
O3       O      0.961560000000     0.995100000000     0.462500000000    -0.554651   
O4       O      0.060680000000     0.006150000000     0.473620000000    -0.55702    
O5       O      0.053190000000     0.014090000000     0.531530000000    -0.556473   
O6       O      0.954980000000     0.996500000000     0.521060000000    -0.559285   
O7       O      0.011700000000     0.956160000000     0.531390000000    -0.5613     
O8       O      0.995900000000     0.054560000000     0.521270000000    -0.560531   
O9       O      0.972520000000     0.457700000000     0.496670000000    -0.555695   
O10      O      0.980860000000     0.555100000000     0.520010000000    -0.555868   
O11      O      0.975760000000     0.518600000000     0.459160000000    -0.552941   
O12      O      0.977600000000     0.494280000000     0.556670000000    -0.555181   
O13      O      0.036450000000     0.492040000000     0.554770000000    -0.558713   
O14      O      0.034270000000     0.512110000000     0.456650000000    -0.561511   
O15      O      0.039460000000     0.551000000000     0.515450000000    -0.562276   
O16      O      0.031290000000     0.453180000000     0.495410000000    -0.561334   
O17      O      0.514880000000     0.986550000000     0.570240000000    -0.558663   
O18      O      0.502270000000     0.976180000000     0.471360000000    -0.558774   
O19      O      0.557940000000     0.981440000000     0.515020000000    -0.559787   
O20      O      0.458420000000     0.981310000000     0.526920000000    -0.556557   
O21      O      0.458040000000     0.040270000000     0.523980000000    -0.557064   
O22      O      0.556830000000     0.039740000000     0.505870000000    -0.553907   
O23      O      0.498260000000     0.034800000000     0.465790000000    -0.557976   
O24      O      0.515820000000     0.045240000000     0.563900000000    -0.557997   
O25      O      0.491970000000     0.070270000000     0.024450000000    -0.557615   
O26      O      0.476750000000     0.971640000000     0.012190000000    -0.555077   
O27      O      0.483030000000     0.015130000000     0.067540000000    -0.560181   
O28      O      0.485770000000     0.027530000000     0.968170000000    -0.557356   
O29      O      0.543860000000     0.017610000000     0.968550000000    -0.559845   
O30      O      0.541170000000     0.005500000000     0.068030000000    -0.556379   
O31      O      0.535000000000     0.962620000000     0.012020000000    -0.557885   
O32      O      0.550200000000     0.061220000000     0.023940000000    -0.556278   
O33      O      0.006240000000     0.475620000000     0.961100000000    -0.554642   
O34      O      0.012040000000     0.488190000000     0.060500000000    -0.557545   
O35      O      0.959010000000     0.484830000000     0.013700000000    -0.556844   
O36      O      0.059030000000     0.479110000000     0.008860000000    -0.55706    
O37      O      0.061910000000     0.537780000000     0.002950000000    -0.559608   
O38      O      0.961910000000     0.542830000000     0.003100000000    -0.559361   
O39      O      0.012010000000     0.546740000000     0.053010000000    -0.556398   
O40      O      0.012050000000     0.533880000000     0.953530000000    -0.558984   
O41      O      0.525560000000     0.466720000000     0.980000000000    -0.552822   
O42      O      0.503770000000     0.564980000000     0.978160000000    -0.555898   
O43      O      0.562980000000     0.527180000000     0.983660000000    -0.557995   
O44      O      0.465520000000     0.505430000000     0.974350000000    -0.555145   
O45      O      0.460280000000     0.504110000000     0.033070000000    -0.560974   
O46      O      0.557420000000     0.526570000000     0.042330000000    -0.559322   
O47      O      0.497130000000     0.564470000000     0.036710000000    -0.557485   
O48      O      0.519750000000     0.466700000000     0.038630000000    -0.560929   
V1       V      0.011520000000     0.000400000000     0.465740000000     1.3824     
V2       V      0.003670000000     0.005550000000     0.528630000000     1.39723    
V3       V      0.974310000000     0.506640000000     0.508120000000     1.3782     
V4       V      0.037680000000     0.501900000000     0.505500000000     1.40354    
V5       V      0.508330000000     0.979020000000     0.521080000000     1.39393    
V6       V      0.507250000000     0.042370000000     0.514570000000     1.38573    
V7       V      0.482060000000     0.021460000000     0.017940000000     1.38953    
V8       V      0.544880000000     0.011440000000     0.018190000000     1.38983    
V9       V      0.008890000000     0.479570000000     0.011230000000     1.38519    
V10      V      0.012030000000     0.542640000000     0.002850000000     1.39419    
V11      V      0.514660000000     0.515950000000     0.976680000000     1.38135    
V12      V      0.508490000000     0.515490000000     0.040000000000     1.39885    


