data_structure

_audit_creation_method RASPA-1.0
_audit_creation_date 2023-5-25
_audit_author_name 'Poobodin Mano'

_cell_length_a    37.9557
_cell_length_b    37.9213
_cell_length_c    37.9569
_cell_angle_alpha 90
_cell_angle_beta  90
_cell_angle_gamma 90
_cell_volume      54632.5

_symmetry_cell_setting          triclinic
_symmetry_space_group_name_Hall 'P 1'
_symmetry_space_group_name_H-M  'P 1'
_symmetry_Int_Tables_number     1

_symmetry_equiv_pos_as_xyz 'x,y,z'

loop_
_atom_site_label
_atom_site_type_symbol
_atom_site_fract_x
_atom_site_fract_y
_atom_site_fract_z
_atom_site_charge
Br1      Br     0.879620000000     0.538480000000     0.076980000000    -0.247178   
Br2      Br     0.375550000000     0.414420000000     0.008350000000    -0.246863   
Br3      Br     0.468180000000     0.885950000000     0.081400000000    -0.247043   
Br4      Br     0.493780000000     0.118160000000     0.911080000000    -0.22995    
Br5      Br     0.557210000000     0.027870000000     0.870190000000    -0.224885   
Br6      Br     0.487650000000     0.084880000000     0.111810000000    -0.247052   
Br7      Br     0.040710000000     0.453750000000     0.619720000000    -0.239996   
Br8      Br     0.016650000000     0.570520000000     0.376660000000    -0.249304   
Br9      Br     0.115120000000     0.913800000000     0.458250000000    -0.2379     
Br10     Br     0.885910000000     0.968740000000     0.563560000000    -0.241772   
Br11     Br     0.032120000000     0.871170000000     0.562300000000    -0.229606   
Br12     Br     0.939490000000     0.366510000000     0.532210000000    -0.24063    
C1       C      0.996490000000     0.929880000000     0.500180000000     0.486627   
C2       C      0.012920000000     0.062000000000     0.489260000000     0.474274   
C3       C      0.937900000000     0.003870000000     0.498800000000     0.481772   
C4       C      0.070120000000     0.986880000000     0.490950000000     0.485116   
C5       C      0.992880000000     0.429780000000     0.492740000000     0.483444   
C6       C      0.978370000000     0.562560000000     0.495050000000     0.477825   
C7       C      0.989290000000     0.499110000000     0.427500000000     0.484711   
C8       C      0.981980000000     0.493280000000     0.560600000000     0.484377   
C9       C      0.569870000000     0.001190000000     0.506240000000     0.473214   
C10      C      0.437890000000     0.991130000000     0.488230000000     0.472792   
C11      C      0.512840000000     0.004540000000     0.431050000000     0.472773   
C12      C      0.494780000000     0.987960000000     0.562470000000     0.472633   
C13      C      0.508150000000     0.009240000000     0.063340000000     0.486674   
C14      C      0.501360000000     0.990460000000     0.931190000000     0.483139   
C15      C      0.510820000000     0.064960000000     0.986880000000     0.489696   
C16      C      0.498490000000     0.933470000000     0.007510000000     0.483153   
C17      C      0.000950000000     0.494020000000     0.059990000000     0.478339   
C18      C      0.978340000000     0.495810000000     0.928470000000     0.47451    
C19      C      0.055460000000     0.488340000000     0.983980000000     0.472101   
C20      C      0.924230000000     0.501410000000     0.005340000000     0.483412   
C21      C      0.497850000000     0.433480000000     0.992740000000     0.475119   
C22      C      0.481540000000     0.566000000000     0.999220000000     0.471728   
C23      C      0.424050000000     0.491100000000     0.991690000000     0.482153   
C24      C      0.556290000000     0.507410000000     0.000260000000     0.47203    
C25      C      0.828860000000     0.481040000000     0.001280000000    -0.03286    
C26      C      0.651860000000     0.511550000000     0.974060000000    -0.0320229  
C27      C      0.608520000000     0.514880000000     0.037640000000    -0.000389082
C28      C      0.613810000000     0.498340000000     0.972200000000    -0.00197843 
C29      C      0.720750000000     0.489780000000     0.038850000000    -0.0528264  
C30      C      0.760570000000     0.533750000000     0.995200000000    -0.0554377  
C31      C      0.703600000000     0.510190000000     0.013300000000     0.0616386  
C32      C      0.646330000000     0.528510000000     0.035080000000    -0.032298   
C33      C      0.777680000000     0.512920000000     0.020790000000     0.0645773  
C34      C      0.835350000000     0.542740000000     0.016100000000    -0.0592435  
C35      C      0.757250000000     0.491440000000     0.042820000000    -0.0519583  
C36      C      0.874350000000     0.537980000000     0.025990000000     0.122221   
C37      C      0.866640000000     0.472580000000     0.012000000000     0.0054576  
C38      C      0.723820000000     0.533200000000     0.992210000000    -0.054523   
C39      C      0.331430000000     0.500050000000     0.961350000000    -0.0329025  
C40      C      0.146330000000     0.447910000000     0.981360000000    -0.0320314  
C41      C      0.112690000000     0.517080000000     0.975740000000    -0.000452593
C42      C      0.107730000000     0.451400000000     0.992490000000    -0.00171549 
C43      C      0.222520000000     0.501320000000     0.007760000000    -0.0521734  
C44      C      0.257610000000     0.455610000000     0.961990000000    -0.051191   
C45      C      0.202840000000     0.479460000000     0.985420000000     0.0616151  
C46      C      0.150350000000     0.508930000000     0.964130000000    -0.032276   
C47      C      0.277220000000     0.476660000000     0.985170000000     0.0639121  
C48      C      0.331570000000     0.474540000000     0.019910000000    -0.0597471  
C49      C      0.259300000000     0.500570000000     0.007230000000    -0.0552541  
C50      C      0.370620000000     0.464690000000     0.017420000000     0.122437   
C51      C      0.370200000000     0.490620000000     0.955430000000     0.0048218  
C52      C      0.220800000000     0.457380000000     0.961540000000    -0.0544578  
C53      C      0.515650000000     0.837760000000     0.998350000000    -0.0333318  
C54      C      0.470200000000     0.655020000000     0.038430000000    -0.0319076  
C55      C      0.481580000000     0.623670000000     0.969200000000    -0.00114625 
C56      C      0.457770000000     0.617300000000     0.031450000000    -0.00213883 
C57      C      0.454980000000     0.736300000000     0.989060000000    -0.0530082  
C58      C      0.502550000000     0.763690000000     0.038040000000    -0.0514451  
C59      C      0.474400000000     0.713120000000     0.010280000000     0.0619835  
C60      C      0.493710000000     0.660810000000     0.979290000000    -0.0324493  
C61      C      0.482530000000     0.786890000000     0.017400000000     0.0644203  
C62      C      0.455700000000     0.845880000000     0.018790000000    -0.0593712  
C63      C      0.459390000000     0.772780000000     0.991990000000    -0.0557491  
C64      C      0.463020000000     0.883910000000     0.030430000000     0.122331   
C65      C      0.526350000000     0.874830000000     0.010050000000     0.0053406  
C66      C      0.499160000000     0.727200000000     0.034130000000    -0.0548509  
C67      C      0.541660000000     0.156540000000     0.997820000000    -0.0335326  
C68      C      0.504000000000     0.342470000000     0.954890000000    -0.0302133  
C69      C      0.506420000000     0.377080000000     0.023560000000    -0.000940865
C70      C      0.488050000000     0.379270000000     0.958740000000    -0.00319793 
C71      C      0.489620000000     0.263320000000     0.009030000000    -0.0499839  
C72      C      0.534960000000     0.234340000000     0.958830000000    -0.0508603  
C73      C      0.508090000000     0.285820000000     0.986280000000     0.062729   
C74      C      0.522400000000     0.340820000000     0.015850000000    -0.0311219  
C75      C      0.514970000000     0.211890000000     0.980280000000     0.0655166  
C76      C      0.481950000000     0.156950000000     0.974590000000    -0.0607027  
C77      C      0.493520000000     0.226770000000     0.006690000000    -0.0544395  
C78      C      0.485060000000     0.118930000000     0.961600000000     0.123155   
C79      C      0.547750000000     0.118590000000     0.985170000000     0.00647017 
C80      C      0.532180000000     0.270970000000     0.962170000000    -0.0534162  
C81      C      0.463780000000     0.985560000000     0.839850000000    -0.0306052  
C82      C      0.508070000000     0.954860000000     0.653060000000    -0.0325739  
C83      C      0.468850000000     0.010620000000     0.617540000000    -0.00164049 
C84      C      0.495490000000     0.949400000000     0.615010000000    -0.000925526
C85      C      0.469140000000     0.957230000000     0.731060000000    -0.0520795  
C86      C      0.517240000000     0.003920000000     0.761460000000    -0.051816   
C87      C      0.489540000000     0.979000000000     0.709280000000     0.061317   
C88      C      0.482170000000     0.013450000000     0.655370000000    -0.0319938  
C89      C      0.495440000000     0.983610000000     0.783320000000     0.0656412  
C90      C      0.524920000000     0.967880000000     0.838010000000    -0.060095   
C91      C      0.472450000000     0.958920000000     0.767730000000    -0.0561627  
C92      C      0.532460000000     0.983080000000     0.874700000000     0.123184   
C93      C      0.467240000000     0.000480000000     0.877120000000     0.00224759 
C94      C      0.514920000000     0.001200000000     0.724830000000    -0.0529335  
C95      C      0.538700000000     0.001250000000     0.156020000000    -0.033667   
C96      C      0.523550000000     0.981000000000     0.336660000000    -0.0320323  
C97      C      0.514130000000     0.044190000000     0.379490000000    -0.00094039 
C98      C      0.535840000000     0.980920000000     0.375020000000    -0.00195524 
C99      C      0.542860000000     0.042070000000     0.265300000000    -0.0526563  
C100     C      0.493490000000     0.000910000000     0.229300000000    -0.054594   
C101     C      0.521360000000     0.018860000000     0.284330000000     0.0617003  
C102     C      0.502210000000     0.041130000000     0.341040000000    -0.0324483  
C103     C      0.515080000000     0.024460000000     0.210290000000     0.0648037  
C104     C      0.479310000000     0.024500000000     0.156200000000    -0.0602287  
C105     C      0.539570000000     0.045030000000     0.228760000000    -0.0516565  
C106     C      0.481140000000     0.034240000000     0.116990000000     0.123805   
C107     C      0.544180000000     0.010790000000     0.117270000000     0.00688134 
C108     C      0.495870000000     0.998930000000     0.266040000000    -0.0538009  
C109     C      0.943620000000     0.484390000000     0.650630000000    -0.030992   
C110     C      0.986210000000     0.521700000000     0.835070000000    -0.032537   
C111     C      0.953000000000     0.466110000000     0.876500000000    -0.00153055 
C112     C      0.974600000000     0.529360000000     0.872920000000    -0.00062628 
C113     C      0.945900000000     0.513100000000     0.759880000000    -0.0523301  
C114     C      0.995540000000     0.467770000000     0.729880000000    -0.0524172  
C115     C      0.967240000000     0.492450000000     0.781830000000     0.0615773  
C116     C      0.964900000000     0.461380000000     0.838360000000    -0.0321616  
C117     C      0.973340000000     0.487470000000     0.707910000000     0.065491   
C118     C      0.002630000000     0.508280000000     0.655240000000    -0.0609068  
C119     C      0.949290000000     0.511250000000     0.723270000000    -0.0564217  
C120     C      0.012270000000     0.496450000000     0.617870000000     0.124707   
C121     C      0.949640000000     0.472220000000     0.612730000000     0.00250063 
C122     C      0.993110000000     0.470670000000     0.766470000000    -0.0535684  
C123     C      0.968910000000     0.485030000000     0.332730000000    -0.0329562  
C124     C      0.013630000000     0.528600000000     0.150060000000    -0.0328766  
C125     C      0.001700000000     0.460800000000     0.115850000000     0.001514   
C126     C      0.026600000000     0.522820000000     0.112390000000     0.000247789
C127     C      0.027030000000     0.476440000000     0.229460000000    -0.0528595  
C128     C      0.979520000000     0.525090000000     0.257660000000    -0.0499412  
C129     C      0.007810000000     0.498310000000     0.206750000000     0.0632285  
C130     C      0.989050000000     0.469510000000     0.153100000000    -0.0333806  
C131     C      0.999710000000     0.504150000000     0.280400000000     0.0644887  
C132     C      0.028630000000     0.506990000000     0.338000000000    -0.0600302  
C133     C      0.022610000000     0.478740000000     0.265910000000    -0.0549844  
C134     C      0.022610000000     0.519550000000     0.375810000000     0.123042   
C135     C      0.959400000000     0.497210000000     0.369970000000     0.00521569 
C136     C      0.982910000000     0.521800000000     0.221170000000    -0.0546041  
C137     C      0.165110000000     0.991160000000     0.513780000000    -0.0323485  
C138     C      0.342090000000     0.015840000000     0.487710000000    -0.0319554  
C139     C      0.386210000000     0.953370000000     0.478380000000    -0.000375012
C140     C      0.380120000000     0.017000000000     0.500740000000    -0.00128536 
C141     C      0.273310000000     0.951320000000     0.506830000000    -0.0522964  
C142     C      0.234270000000     0.995280000000     0.462450000000    -0.0551529  
C143     C      0.290830000000     0.976450000000     0.486240000000     0.0618169  
C144     C      0.348000000000     0.956360000000     0.465810000000    -0.0324819  
C145     C      0.216720000000     0.970140000000     0.483480000000     0.065022   
C146     C      0.159850000000     0.974250000000     0.452510000000    -0.0596252  
C147     C      0.236730000000     0.947980000000     0.505220000000    -0.0515103  
C148     C      0.120770000000     0.964790000000     0.456720000000     0.122118   
C149     C      0.126900000000     0.981370000000     0.521620000000     0.00432114 
C150     C      0.271030000000     0.997650000000     0.463020000000    -0.0542935  
C151     C      0.842220000000     0.005850000000     0.472830000000    -0.0322891  
C152     C      0.664960000000     0.979750000000     0.499030000000    -0.0324133  
C153     C      0.620760000000     0.035760000000     0.527600000000    -0.0021816  
C154     C      0.627160000000     0.971240000000     0.509650000000    -0.000479939
C155     C      0.733870000000     0.030530000000     0.494310000000    -0.0542361  
C156     C      0.773470000000     0.986150000000     0.537760000000    -0.0532092  
C157     C      0.716710000000     0.009760000000     0.519910000000     0.0615129  
C158     C      0.659580000000     0.040590000000     0.517440000000    -0.0318367  
C159     C      0.790660000000     0.006520000000     0.512230000000     0.0652256  
C160     C      0.847950000000     0.026030000000     0.532890000000    -0.0610796  
C161     C      0.770610000000     0.029700000000     0.491200000000    -0.056194   
C162     C      0.885710000000     0.012250000000     0.536230000000     0.124394   
C163     C      0.880270000000     0.992540000000     0.471650000000     0.00405434 
C164     C      0.737000000000     0.988000000000     0.541780000000    -0.0515287  
C165     C      0.987460000000     0.836520000000     0.472040000000    -0.0303566  
C166     C      0.945630000000     0.652300000000     0.516110000000    -0.032066   
C167     C      0.003060000000     0.619510000000     0.476830000000    -0.00413739 
C168     C      0.940550000000     0.615310000000     0.500410000000    -0.000815581
C169     C      0.949700000000     0.732360000000     0.481980000000    -0.0512214  
C170     C      0.997990000000     0.760550000000     0.529850000000    -0.0512427  
C171     C      0.970770000000     0.709620000000     0.502020000000     0.0627628  
C172     C      0.005360000000     0.656010000000     0.493330000000    -0.0297766  
C173     C      0.979170000000     0.783240000000     0.507600000000     0.0660952  
C174     C      0.969250000000     0.841400000000     0.533080000000    -0.0599537  
C175     C      0.953220000000     0.768900000000     0.485210000000    -0.0551339  
C176     C      0.987680000000     0.877240000000     0.537420000000     0.123971   
C177     C      0.006280000000     0.872000000000     0.472940000000     0.00209128 
C178     C      0.993350000000     0.724070000000     0.527730000000    -0.0529959  
C179     C      0.035930000000     0.341050000000     0.494660000000    -0.0310216  
C180     C      0.999200000000     0.153640000000     0.459920000000    -0.0325503  
C181     C      0.038880000000     0.116200000000     0.514020000000    -0.00165118 
C182     C      0.012160000000     0.116010000000     0.452850000000    -0.000827428
C183     C      0.036800000000     0.231900000000     0.465220000000    -0.0524143  
C184     C      0.987250000000     0.259540000000     0.512090000000    -0.0522854  
C185     C      0.016990000000     0.208940000000     0.486300000000     0.0616079  
C186     C      0.025260000000     0.153780000000     0.518470000000    -0.0319437  
C187     C      0.008110000000     0.282590000000     0.492160000000     0.0654293  
C188     C      0.975830000000     0.334740000000     0.474360000000    -0.0609616  
C189     C      0.032020000000     0.268380000000     0.467530000000    -0.0563344  
C190     C      0.965340000000     0.371220000000     0.488140000000     0.124736   
C191     C      0.029290000000     0.378400000000     0.508340000000     0.00249677 
C192     C      0.991030000000     0.223070000000     0.508770000000    -0.0536716  
H1       H      0.711590000000     0.549980000000     0.972700000000     0.0405715  
H2       H      0.812770000000     0.456790000000     0.005220000000     0.0362081  
H3       H      0.824020000000     0.565030000000     0.031450000000     0.0586173  
H4       H      0.608650000000     0.489210000000     0.051820000000     0.0381694  
H5       H      0.866510000000     0.461030000000     0.038930000000     0.0483141  
H6       H      0.667890000000     0.496390000000     0.954740000000     0.0348166  
H7       H      0.658410000000     0.526870000000     0.061770000000     0.0357795  
H8       H      0.602060000000     0.507410000000     0.946930000000     0.0387108  
H9       H      0.889200000000     0.561080000000     0.015750000000     0.0269718  
H10      H      0.775320000000     0.550270000000     0.977280000000     0.041208   
H11      H      0.876970000000     0.452160000000     0.993660000000     0.0370625  
H12      H      0.705680000000     0.472220000000     0.055570000000     0.0456092  
H13      H      0.827800000000     0.488070000000     0.972800000000     0.0379542  
H14      H      0.592830000000     0.533720000000     0.053750000000     0.0372815  
H15      H      0.652370000000     0.539880000000     0.966330000000     0.0361311  
H16      H      0.646440000000     0.556720000000     0.026860000000     0.0390172  
H17      H      0.769910000000     0.474950000000     0.062380000000     0.0499322  
H18      H      0.834020000000     0.549820000000     0.987670000000     0.0421147  
H19      H      0.614100000000     0.469020000000     0.971470000000     0.0359541  
H20      H      0.206650000000     0.441080000000     0.942940000000     0.0425429  
H21      H      0.318000000000     0.500200000000     0.935270000000     0.0364901  
H22      H      0.317960000000     0.455760000000     0.037880000000     0.0592597  
H23      H      0.113620000000     0.532050000000     0.000940000000     0.0387854  
H24      H      0.371650000000     0.466170000000     0.939320000000     0.0491193  
H25      H      0.158730000000     0.426580000000     0.997240000000     0.0369527  
H26      H      0.166060000000     0.533650000000     0.966250000000     0.0346831  
H27      H      0.092860000000     0.428390000000     0.982020000000     0.0390398  
H28      H      0.382830000000     0.469740000000     0.043560000000     0.0273387  
H29      H      0.270990000000     0.437830000000     0.944110000000     0.0508843  
H30      H      0.382780000000     0.512190000000     0.940070000000     0.0368088  
H31      H      0.209180000000     0.519220000000     0.025550000000     0.0450426  
H32      H      0.329330000000     0.527010000000     0.972820000000     0.0378179  
H33      H      0.100220000000     0.534570000000     0.955770000000     0.036712   
H34      H      0.147260000000     0.440020000000     0.953110000000     0.0369953  
H35      H      0.150700000000     0.500430000000     0.936030000000     0.0384951  
H36      H      0.273470000000     0.518330000000     0.024410000000     0.0416497  
H37      H      0.329780000000     0.501310000000     0.031780000000     0.0429896  
H38      H      0.106260000000     0.449830000000     0.021720000000     0.0367985  
H39      H      0.515710000000     0.710280000000     0.049960000000     0.0420948  
H40      H      0.539400000000     0.820580000000     0.999710000000     0.0362991  
H41      H      0.434340000000     0.834550000000     0.035400000000     0.0590089  
H42      H      0.456340000000     0.625670000000     0.954450000000     0.0363756  
H43      H      0.540020000000     0.873010000000     0.035900000000     0.0494293  
H44      H      0.452480000000     0.667200000000     0.058380000000     0.0367499  
H45      H      0.493840000000     0.677300000000     0.955020000000     0.0344591  
H46      H      0.461670000000     0.601480000000     0.055800000000     0.0399315  
H47      H      0.439530000000     0.900100000000     0.023720000000     0.0279665  
H48      H      0.521250000000     0.774040000000     0.056950000000     0.0500097  
H49      H      0.545520000000     0.885490000000     0.990600000000     0.0379837  
H50      H      0.436600000000     0.725950000000     0.969840000000     0.0446688  
H51      H      0.506420000000     0.838330000000     0.970490000000     0.0381222  
H52      H      0.501550000000     0.611920000000     0.951240000000     0.0378974  
H53      H      0.497310000000     0.653800000000     0.049540000000     0.0378851  
H54      H      0.521110000000     0.659880000000     0.989810000000     0.038714   
H55      H      0.444510000000     0.789660000000     0.974540000000     0.0415399  
H56      H      0.446140000000     0.846650000000     0.991080000000     0.0426652  
H57      H      0.429000000000     0.617870000000     0.025930000000     0.0355187  
H58      H      0.548020000000     0.287350000000     0.945070000000     0.0428241  
H59      H      0.567440000000     0.170530000000     0.997710000000     0.0397401  
H60      H      0.463050000000     0.171500000000     0.957500000000     0.0609777  
H61      H      0.480840000000     0.373390000000     0.037370000000     0.0468404  
H62      H      0.562320000000     0.119320000000     0.959770000000     0.0568406  
H63      H      0.489360000000     0.328140000000     0.933890000000     0.0391465  
H64      H      0.522050000000     0.325230000000     0.040700000000     0.036595   
H65      H      0.494350000000     0.394700000000     0.934630000000     0.0420258  
H66      H      0.459170000000     0.105860000000     0.965730000000     0.0309077  
H67      H      0.552360000000     0.223340000000     0.939070000000     0.0528284  
H68      H      0.564560000000     0.104700000000     0.004760000000     0.0431774  
H69      H      0.471770000000     0.274240000000     0.028440000000     0.0494643  
H70      H      0.531490000000     0.156320000000     0.025360000000     0.0473261  
H71      H      0.524280000000     0.391540000000     0.041770000000     0.0387749  
H72      H      0.531960000000     0.345280000000     0.946470000000     0.0372118  
H73      H      0.550350000000     0.343700000000     0.007360000000     0.0390488  
H74      H      0.478890000000     0.210340000000     0.024790000000     0.0470629  
H75      H      0.470900000000     0.156250000000     0.001730000000     0.0506493  
H76      H      0.458880000000     0.376730000000     0.959960000000     0.0488679  
H77      H      0.532220000000     0.017280000000     0.708870000000     0.0436904  
H78      H      0.442690000000     0.000390000000     0.825850000000     0.0399567  
H79      H      0.549680000000     0.968330000000     0.822280000000     0.0570034  
H80      H      0.440580000000     0.002960000000     0.618210000000     0.0351074  
H81      H      0.467750000000     0.029770000000     0.875490000000     0.0590949  
H82      H      0.509180000000     0.928650000000     0.666220000000     0.0353608  
H83      H      0.464020000000     0.030940000000     0.670370000000     0.0375334  
H84      H      0.515700000000     0.933870000000     0.600530000000     0.0373875  
H85      H      0.550440000000     0.964640000000     0.888710000000     0.0244469  
H86      H      0.535830000000     0.022280000000     0.772970000000     0.059301   
H87      H      0.443250000000     0.993130000000     0.892260000000     0.0417104  
H88      H      0.450210000000     0.939250000000     0.719520000000     0.0449799  
H89      H      0.455640000000     0.957420000000     0.841760000000     0.0359419  
H90      H      0.470430000000     0.037080000000     0.605020000000     0.0397407  
H91      H      0.535130000000     0.966260000000     0.653060000000     0.0396338  
H92      H      0.508720000000     0.025870000000     0.654830000000     0.0394041  
H93      H      0.456180000000     0.941750000000     0.783620000000     0.0416504  
H94      H      0.516490000000     0.939830000000     0.840330000000     0.0439087  
H95      H      0.470710000000     0.933750000000     0.615430000000     0.0369496  
H96      H      0.478210000000     0.981350000000     0.279850000000     0.042181   
H97      H      0.564850000000     0.001920000000     0.169300000000     0.0380659  
H98      H      0.460700000000     0.042600000000     0.169870000000     0.0599151  
H99      H      0.539790000000     0.058310000000     0.380320000000     0.036949   
H100     H      0.559510000000     0.035730000000     0.115730000000     0.0485583  
H101     H      0.540650000000     0.962770000000     0.321310000000     0.0359033  
H102     H      0.503190000000     0.067890000000     0.329010000000     0.0363589  
H103     H      0.530970000000     0.954310000000     0.386300000000     0.0395335  
H104     H      0.455240000000     0.027800000000     0.104900000000     0.030921   
H105     H      0.474710000000     0.984090000000     0.216040000000     0.0446758  
H106     H      0.560250000000     0.989690000000     0.104760000000     0.0411799  
H107     H      0.562300000000     0.057920000000     0.278920000000     0.0460489  
H108     H      0.528110000000     0.973930000000     0.158230000000     0.0452421  
H109     H      0.494530000000     0.060400000000     0.394070000000     0.0380308  
H110     H      0.496030000000     0.970880000000     0.335780000000     0.0380843  
H111     H      0.474450000000     0.031640000000     0.339880000000     0.0397502  
H112     H      0.556650000000     0.063000000000     0.214600000000     0.0506575  
H113     H      0.468570000000     0.997260000000     0.158290000000     0.0488667  
H114     H      0.564780000000     0.985430000000     0.375510000000     0.035052   
H115     H      0.011120000000     0.455500000000     0.782490000000     0.0431557  
H116     H      0.924000000000     0.466540000000     0.663160000000     0.0398416  
H117     H      0.027050000000     0.509140000000     0.671480000000     0.0574509  
H118     H      0.924140000000     0.471130000000     0.876670000000     0.0347643  
H119     H      0.954350000000     0.443280000000     0.612820000000     0.0574001  
H120     H      0.984970000000     0.546790000000     0.819890000000     0.0354301  
H121     H      0.947610000000     0.441450000000     0.825540000000     0.0367098  
H122     H      0.994060000000     0.547550000000     0.885150000000     0.0381111  
H123     H      0.028860000000     0.517400000000     0.605780000000     0.0255815  
H124     H      0.014940000000     0.450210000000     0.718490000000     0.0573477  
H125     H      0.925080000000     0.476940000000     0.597480000000     0.0444409  
H126     H      0.926630000000     0.530800000000     0.771280000000     0.0447581  
H127     H      0.932460000000     0.511530000000     0.649960000000     0.0366233  
H128     H      0.957610000000     0.441030000000     0.890940000000     0.0396179  
H129     H      0.014010000000     0.512240000000     0.834870000000     0.0396719  
H130     H      0.992370000000     0.451140000000     0.838560000000     0.0388234  
H131     H      0.932740000000     0.528010000000     0.707260000000     0.0418034  
H132     H      0.991530000000     0.535480000000     0.654510000000     0.0447458  
H133     H      0.948680000000     0.543030000000     0.872270000000     0.0368553  
H134     H      0.966450000000     0.538000000000     0.204510000000     0.0468204  
H135     H      0.944500000000     0.485500000000     0.316460000000     0.0373835  
H136     H      0.049220000000     0.523680000000     0.325400000000     0.0594548  
H137     H      0.026900000000     0.445950000000     0.117650000000     0.0361948  
H138     H      0.944600000000     0.522460000000     0.368200000000     0.0498695  
H139     H      0.031510000000     0.547720000000     0.163300000000     0.0384847  
H140     H      0.988380000000     0.444580000000     0.168580000000     0.0363435  
H141     H      0.023820000000     0.547930000000     0.097540000000     0.0426968  
H142     H      0.046860000000     0.513670000000     0.391170000000     0.0275614  
H143     H      0.961000000000     0.544000000000     0.268360000000     0.05203    
H144     H      0.941590000000     0.477280000000     0.382040000000     0.0374456  
H145     H      0.045450000000     0.457440000000     0.218770000000     0.0452986  
H146     H      0.978850000000     0.457390000000     0.333440000000     0.0381901  
H147     H      0.981860000000     0.443360000000     0.103140000000     0.0410771  
H148     H      0.986770000000     0.540290000000     0.148790000000     0.0453969  
H149     H      0.961810000000     0.480430000000     0.152140000000     0.0469291  
H150     H      0.037530000000     0.461060000000     0.282530000000     0.0416754  
H151     H      0.038730000000     0.479450000000     0.339090000000     0.0431848  
H152     H      0.055140000000     0.516280000000     0.113300000000     0.0352685  
H153     H      0.283650000000     0.016770000000     0.446080000000     0.041093   
H154     H      0.180560000000     0.987730000000     0.538490000000     0.0380348  
H155     H      0.171550000000     0.958050000000     0.431040000000     0.0591152  
H156     H      0.386890000000     0.937040000000     0.502720000000     0.0383163  
H157     H      0.126270000000     0.954940000000     0.534300000000     0.0566896  
H158     H      0.325970000000     0.033740000000     0.504450000000     0.0352553  
H159     H      0.336290000000     0.929440000000     0.465730000000     0.0366486  
H160     H      0.391330000000     0.043280000000     0.494120000000     0.0389625  
H161     H      0.106620000000     0.974130000000     0.432820000000     0.0271416  
H162     H      0.219860000000     0.013280000000     0.445730000000     0.0415344  
H163     H      0.116180000000     0.000730000000     0.540860000000     0.0401085  
H164     H      0.288120000000     0.934510000000     0.524520000000     0.0468483  
H165     H      0.166830000000     0.019410000000     0.505870000000     0.0383096  
H166     H      0.401780000000     0.939230000000     0.457960000000     0.0371659  
H167     H      0.341350000000     0.025820000000     0.460130000000     0.0367266  
H168     H      0.347170000000     0.966670000000     0.438340000000     0.0392674  
H169     H      0.223720000000     0.928740000000     0.521820000000     0.0527272  
H170     H      0.161520000000     0.002440000000     0.444530000000     0.0427222  
H171     H      0.380080000000     0.014810000000     0.529960000000     0.0356015  
H172     H      0.724260000000     0.971530000000     0.561300000000     0.0471467  
H173     H      0.826120000000     0.989650000000     0.454430000000     0.0366768  
H174     H      0.835600000000     0.026390000000     0.559500000000     0.0581162  
H175     H      0.618940000000     0.033760000000     0.556760000000     0.0364555  
H176     H      0.879970000000     0.963230000000     0.472570000000     0.0455902  
H177     H      0.680750000000     0.955110000000     0.501430000000     0.0357195  
H178     H      0.671190000000     0.061580000000     0.534330000000     0.0360722  
H179     H      0.616270000000     0.952180000000     0.490210000000     0.0382172  
H180     H      0.901320000000     0.032000000000     0.551280000000     0.0256129  
H181     H      0.788490000000     0.968510000000     0.554430000000     0.0581468  
H182     H      0.891950000000     0.000180000000     0.445880000000     0.0379751  
H183     H      0.719130000000     0.047170000000     0.476490000000     0.0406934  
H184     H      0.841670000000     0.033700000000     0.463540000000     0.0356311  
H185     H      0.605930000000     0.059740000000     0.519570000000     0.0393109  
H186     H      0.665840000000     0.988400000000     0.470990000000     0.038914   
H187     H      0.660800000000     0.049460000000     0.489510000000     0.0369022  
H188     H      0.782990000000     0.046400000000     0.471720000000     0.0411582  
H189     H      0.848170000000     0.053680000000     0.522960000000     0.0449534  
H190     H      0.627400000000     0.958050000000     0.535830000000     0.0371395  
H191     H      0.008850000000     0.707340000000     0.544810000000     0.0440806  
H192     H      0.000910000000     0.819390000000     0.452380000000     0.0415623  
H193     H      0.968520000000     0.827820000000     0.559080000000     0.0596903  
H194     H      0.997030000000     0.622590000000     0.448320000000     0.0528324  
H195     H      0.035060000000     0.867230000000     0.475670000000     0.0626219  
H196     H      0.919520000000     0.665640000000     0.516990000000     0.0361176  
H197     H      0.023880000000     0.672280000000     0.477410000000     0.0413342  
H198     H      0.924410000000     0.599250000000     0.518870000000     0.0376728  
H199     H      0.970680000000     0.894360000000     0.554090000000     0.0343145  
H200     H      0.017240000000     0.771180000000     0.548040000000     0.0583134  
H201     H      0.002160000000     0.885300000000     0.447160000000     0.0463052  
H202     H      0.931410000000     0.721680000000     0.462860000000     0.0472526  
H203     H      0.959810000000     0.840890000000     0.463280000000     0.0385682  
H204     H      0.029290000000     0.606640000000     0.478830000000     0.0493061  
H205     H      0.955780000000     0.650210000000     0.543570000000     0.039541   
H206     H      0.016270000000     0.653230000000     0.520410000000     0.039885   
H207     H      0.937020000000     0.785600000000     0.468770000000     0.0432699  
H208     H      0.941500000000     0.845470000000     0.524430000000     0.0494544  
H209     H      0.925740000000     0.617700000000     0.475240000000     0.0415685  
H210     H      0.974170000000     0.206160000000     0.524300000000     0.0434664  
H211     H      0.057130000000     0.328810000000     0.510810000000     0.0399751  
H212     H      0.952100000000     0.317460000000     0.474290000000     0.0568372  
H213     H      0.067100000000     0.117430000000     0.506260000000     0.0351902  
H214     H      0.027000000000     0.377390000000     0.537530000000     0.0570114  
H215     H      0.997900000000     0.167880000000     0.434300000000     0.0352334  
H216     H      0.043340000000     0.168240000000     0.536480000000     0.0374314  
H217     H      0.992110000000     0.102030000000     0.436670000000     0.0378841  
H218     H      0.947080000000     0.383330000000     0.468660000000     0.0246274  
H219     H      0.967940000000     0.269990000000     0.530330000000     0.0576599  
H220     H      0.052700000000     0.394880000000     0.502100000000     0.0441012  
H221     H      0.056140000000     0.221410000000     0.447050000000     0.0448523  
H222     H      0.045280000000     0.342870000000     0.466920000000     0.0364756  
H223     H      0.037530000000     0.102560000000     0.539910000000     0.0413255  
H224     H      0.972180000000     0.152860000000     0.471350000000     0.0395652  
H225     H      0.998760000000     0.152470000000     0.530940000000     0.0398009  
H226     H      0.047570000000     0.285210000000     0.450610000000     0.0416968  
H227     H      0.985260000000     0.336880000000     0.446650000000     0.0442216  
H228     H      0.036970000000     0.117340000000     0.437340000000     0.0368402  
N1       N      0.888930000000     0.504530000000     0.012130000000    -0.187931   
N2       N      0.815640000000     0.510040000000     0.023200000000    -0.100865   
N3       N      0.665760000000     0.506630000000     0.009880000000    -0.112042   
N4       N      0.592210000000     0.509670000000     0.002640000000    -0.180433   
N5       N      0.388690000000     0.484530000000     0.989140000000    -0.188188   
N6       N      0.315240000000     0.473790000000     0.984700000000    -0.100597   
N7       N      0.164800000000     0.481490000000     0.987130000000    -0.111924   
N8       N      0.091260000000     0.484930000000     0.981130000000    -0.18042    
N9       N      0.495330000000     0.898070000000     0.013840000000    -0.187874   
N10      N      0.487920000000     0.824420000000     0.021790000000    -0.100582   
N11      N      0.469400000000     0.675580000000     0.005510000000    -0.112523   
N12      N      0.475900000000     0.601620000000     0.000750000000    -0.180584   
N13      N      0.513920000000     0.100170000000     0.979800000000    -0.184839   
N14      N      0.516700000000     0.174280000000     0.974120000000    -0.0994569  
N15      N      0.501390000000     0.323360000000     0.988520000000    -0.110514   
N16      N      0.500160000000     0.397510000000     0.990990000000    -0.178038   
N17      N      0.499720000000     0.988580000000     0.895170000000    -0.1857     
N18      N      0.497460000000     0.989110000000     0.821030000000    -0.0992741  
N19      N      0.483380000000     0.978200000000     0.671650000000    -0.112453   
N20      N      0.488500000000     0.983520000000     0.597680000000    -0.181035   
N21      N      0.510280000000     0.015780000000     0.098770000000    -0.185854   
N22      N      0.514570000000     0.026790000000     0.172220000000    -0.100205   
N23      N      0.525780000000     0.016940000000     0.322160000000    -0.112531   
N24      N      0.518630000000     0.009090000000     0.395730000000    -0.180772   
N25      N      0.980440000000     0.489730000000     0.596440000000    -0.187016   
N26      N      0.977060000000     0.483450000000     0.670230000000    -0.0999984  
N27      N      0.962590000000     0.495270000000     0.819520000000    -0.112597   
N28      N      0.970890000000     0.496380000000     0.893240000000    -0.181488   
N29      N      0.991190000000     0.502820000000     0.391720000000    -0.188518   
N30      N      0.995500000000     0.508900000000     0.317940000000    -0.100296   
N31      N      0.013440000000     0.494840000000     0.169250000000    -0.112058   
N32      N      0.007730000000     0.493330000000     0.095350000000    -0.179842   
N33      N      0.105500000000     0.980200000000     0.489140000000    -0.186959   
N34      N      0.178720000000     0.968100000000     0.485850000000    -0.10007    
N35      N      0.328640000000     0.979560000000     0.489870000000    -0.112137   
N36      N      0.402010000000     0.988130000000     0.486250000000    -0.180822   
N37      N      0.901950000000     0.005560000000     0.501390000000    -0.187816   
N38      N      0.828440000000     0.002920000000     0.508890000000    -0.100338   
N39      N      0.678780000000     0.007240000000     0.522450000000    -0.112226   
N40      N      0.605390000000     0.003450000000     0.512060000000    -0.180969   
N41      N      0.994480000000     0.893980000000     0.502890000000    -0.184868   
N42      N      0.988600000000     0.820200000000     0.507180000000    -0.0997291  
N43      N      0.970190000000     0.672360000000     0.493930000000    -0.111576   
N44      N      0.974800000000     0.598350000000     0.493200000000    -0.178952   
N45      N      0.996530000000     0.393890000000     0.493920000000    -0.186858   
N46      N      0.003400000000     0.320100000000     0.497120000000    -0.0998619  
N47      N      0.023770000000     0.171500000000     0.483950000000    -0.112636   
N48      N      0.019220000000     0.097360000000     0.486220000000    -0.181216   
O1       O      0.998410000000     0.948880000000     0.528180000000    -0.538387   
O2       O      0.014030000000     0.047410000000     0.519760000000    -0.559471   
O3       O      0.956820000000     0.006070000000     0.526780000000    -0.546946   
O4       O      0.055370000000     0.990630000000     0.521190000000    -0.553611   
O5       O      0.051730000000     0.988240000000     0.462560000000    -0.55106    
O6       O      0.952390000000     0.998460000000     0.468670000000    -0.557744   
O7       O      0.006790000000     0.043520000000     0.461550000000    -0.557159   
O8       O      0.997750000000     0.944220000000     0.469580000000    -0.554744   
O9       O      0.962020000000     0.443320000000     0.489600000000    -0.54681    
O10      O      0.950870000000     0.542750000000     0.495120000000    -0.552845   
O11      O      0.959100000000     0.495690000000     0.442450000000    -0.555626   
O12      O      0.953880000000     0.489570000000     0.542120000000    -0.553289   
O13      O      0.011770000000     0.499100000000     0.545630000000    -0.549435   
O14      O      0.017610000000     0.500390000000     0.445950000000    -0.556725   
O15      O      0.009340000000     0.549020000000     0.495310000000    -0.557271   
O16      O      0.020110000000     0.449660000000     0.496000000000    -0.554824   
O17      O      0.555950000000     0.970930000000     0.500220000000    -0.559485   
O18      O      0.457260000000     0.963370000000     0.486350000000    -0.55565    
O19      O      0.513530000000     0.973380000000     0.444280000000    -0.556904   
O20      O      0.500470000000     0.960950000000     0.542780000000    -0.554316   
O21      O      0.494140000000     0.019100000000     0.549220000000    -0.557339   
O22      O      0.507440000000     0.031520000000     0.450850000000    -0.555524   
O23      O      0.451810000000     0.021510000000     0.493600000000    -0.558313   
O24      O      0.550610000000     0.029070000000     0.507440000000    -0.554738   
O25      O      0.536280000000     0.002090000000     0.045910000000    -0.554035   
O26      O      0.531480000000     0.990190000000     0.946670000000    -0.543308   
O27      O      0.538610000000     0.045870000000     0.990330000000    -0.546202   
O28      O      0.529150000000     0.946830000000     0.002300000000    -0.556428   
O29      O      0.470950000000     0.953190000000     0.007480000000    -0.552912   
O30      O      0.480060000000     0.051110000000     0.989160000000    -0.55244    
O31      O      0.472880000000     0.994210000000     0.949120000000    -0.555746   
O32      O      0.478230000000     0.011160000000     0.047600000000    -0.547481   
O33      O      0.993820000000     0.465150000000     0.043790000000    -0.557504   
O34      O      0.979030000000     0.466260000000     0.945000000000    -0.559454   
O35      O      0.036110000000     0.460740000000     0.987480000000    -0.557221   
O36      O      0.937680000000     0.470590000000     0.001490000000    -0.55987    
O37      O      0.943760000000     0.529070000000     0.003540000000    -0.548022   
O38      O      0.041660000000     0.519270000000     0.984820000000    -0.556562   
O39      O      0.983820000000     0.524910000000     0.944910000000    -0.557624   
O40      O      0.002290000000     0.523380000000     0.043160000000    -0.552752   
O41      O      0.497040000000     0.448820000000     0.022930000000    -0.551344   
O42      O      0.479690000000     0.547390000000     0.027450000000    -0.555834   
O43      O      0.439330000000     0.489390000000     0.021850000000    -0.551639   
O44      O      0.537640000000     0.506550000000     0.028510000000    -0.556281   
O45      O      0.541560000000     0.504870000000     0.969880000000    -0.556348   
O46      O      0.441930000000     0.497770000000     0.963730000000    -0.554548   
O47      O      0.487960000000     0.551300000000     0.969400000000    -0.556407   
O48      O      0.495280000000     0.451580000000     0.964230000000    -0.553618   
V1       V      0.006250000000     0.998450000000     0.526320000000     1.41363    
V2       V      0.001940000000     0.993580000000     0.463230000000     1.39667    
V3       V      0.954100000000     0.492640000000     0.492180000000     1.39658    
V4       V      0.017040000000     0.499720000000     0.495890000000     1.416      
V5       V      0.506950000000     0.964840000000     0.493130000000     1.39267    
V6       V      0.500890000000     0.027640000000     0.500440000000     1.39251    
V7       V      0.536230000000     0.996000000000     0.996220000000     1.39942    
V8       V      0.473180000000     0.002520000000     0.998480000000     1.40682    
V9       V      0.986500000000     0.463350000000     0.994370000000     1.402      
V10      V      0.993050000000     0.526520000000     0.994060000000     1.39325    
V11      V      0.488320000000     0.497980000000     0.027580000000     1.39448    
V12      V      0.491870000000     0.501580000000     0.964430000000     1.39129    


