data_structure

_audit_creation_method RASPA-1.0
_audit_creation_date 2023-6-5
_audit_author_name 'Poobodin Mano'

_cell_length_a    61.6775
_cell_length_b    60.4736
_cell_length_c    37.3276
_cell_angle_alpha 89.951
_cell_angle_beta  90.049
_cell_angle_gamma 119.916
_cell_volume      120676

_symmetry_cell_setting          triclinic
_symmetry_space_group_name_Hall 'P 1'
_symmetry_space_group_name_H-M  'P 1'
_symmetry_Int_Tables_number     1

_symmetry_equiv_pos_as_xyz 'x,y,z'

loop_
_atom_site_label
_atom_site_type_symbol
_atom_site_fract_x
_atom_site_fract_y
_atom_site_fract_z
_atom_site_charge
C1       C      0.842450000000     0.669310000000     0.720950000000     0.483573   
C2       C      0.859990000000     0.666060000000     0.588960000000     0.474259   
C3       C      0.896600000000     0.682410000000     0.668920000000     0.473019   
C4       C      0.805700000000     0.653120000000     0.640870000000     0.473846   
C5       C      0.193400000000     0.843440000000     0.767620000000     0.481173   
C6       C      0.168800000000     0.817800000000     0.897430000000     0.485057   
C7       C      0.226030000000     0.857860000000     0.852820000000     0.473172   
C8       C      0.135850000000     0.802870000000     0.812840000000     0.48392    
C9       C      0.525580000000     0.019380000000     0.939190000000     0.471185   
C10      C      0.506750000000     0.013320000000     0.072330000000     0.486456   
C11      C      0.469710000000     0.991640000000     0.990890000000     0.482991   
C12      C      0.562210000000     0.041110000000     0.021070000000     0.473517   
C13      C      0.190800000000     0.357420000000     0.381960000000     0.485176   
C14      C      0.186880000000     0.338300000000     0.249340000000     0.474898   
C15      C      0.235860000000     0.365000000000     0.316120000000     0.473517   
C16      C      0.142180000000     0.330490000000     0.315120000000     0.483373   
C17      C      0.828200000000     0.182040000000     0.264940000000     0.487133   
C18      C      0.861620000000     0.200770000000     0.137770000000     0.487592   
C19      C      0.800910000000     0.168000000000     0.176340000000     0.485365   
C20      C      0.889130000000     0.214870000000     0.226480000000     0.473426   
C21      C      0.534620000000     0.528930000000     0.411500000000     0.482026   
C22      C      0.510060000000     0.498070000000     0.539460000000     0.487781   
C23      C      0.566930000000     0.543150000000     0.496390000000     0.485597   
C24      C      0.478070000000     0.483900000000     0.454170000000     0.48198    
C25      C      0.191690000000     0.328750000000     0.879070000000     0.483883   
C26      C      0.191450000000     0.356490000000     0.751060000000     0.474997   
C27      C      0.210460000000     0.315830000000     0.794730000000     0.47496    
C28      C      0.172950000000     0.369650000000     0.834940000000     0.472368   
C29      C      0.361200000000     0.193540000000     0.549540000000     0.487337   
C30      C      0.349590000000     0.180420000000     0.683790000000     0.48997    
C31      C      0.383660000000     0.167730000000     0.616440000000     0.485689   
C32      C      0.327020000000     0.206270000000     0.616650000000     0.487547   
C33      C      0.010960000000     0.520680000000     0.889100000000     0.475586   
C34      C      0.021780000000     0.505760000000     0.019840000000     0.475139   
C35      C      0.043770000000     0.494610000000     0.936680000000     0.483783   
C36      C      0.989070000000     0.531810000000     0.971980000000     0.472601   
C37      C      0.676360000000     0.868400000000     0.191740000000     0.474126   
C38      C      0.686460000000     0.842560000000     0.317320000000     0.484738   
C39      C      0.696300000000     0.826880000000     0.228350000000     0.474391   
C40      C      0.666170000000     0.884230000000     0.280560000000     0.473837   
C41      C      0.823750000000     0.666020000000     0.090260000000     0.476391   
C42      C      0.845820000000     0.656520000000     0.217990000000     0.48588    
C43      C      0.812110000000     0.683580000000     0.176520000000     0.484571   
C44      C      0.857590000000     0.638550000000     0.131100000000     0.485627   
C45      C      0.557690000000     0.025580000000     0.570740000000     0.485468   
C46      C      0.532830000000     0.032020000000     0.443140000000     0.47327    
C47      C      0.567280000000     0.005310000000     0.483730000000     0.484693   
C48      C      0.523650000000     0.051890000000     0.530100000000     0.474061   
C49      C      0.343220000000     0.172110000000     0.056810000000     0.473584   
C50      C      0.367270000000     0.210040000000     0.181340000000     0.475376   
C51      C      0.334860000000     0.146420000000     0.146760000000     0.483462   
C52      C      0.375550000000     0.234960000000     0.091760000000     0.473197   
C53      C      0.532870000000     0.527750000000     0.907520000000     0.473007   
C54      C      0.546640000000     0.548620000000     0.040150000000     0.473292   
C55      C      0.567910000000     0.584690000000     0.958690000000     0.473511   
C56      C      0.511200000000     0.491210000000     0.989160000000     0.48405    
C57      C      0.193410000000     0.846420000000     0.267200000000     0.470086   
C58      C      0.214190000000     0.873540000000     0.397230000000     0.471532   
C59      C      0.226860000000     0.905980000000     0.311390000000     0.471349   
C60      C      0.180520000000     0.813750000000     0.352580000000     0.472608   
C61      C      0.989650000000     0.497140000000     0.386450000000     0.489365   
C62      C      0.004730000000     0.523230000000     0.517140000000     0.485715   
C63      C      0.966680000000     0.464450000000     0.470270000000     0.474791   
C64      C      0.027440000000     0.555700000000     0.433500000000     0.485971   
C65      C      0.849300000000     0.218590000000     0.768700000000     0.473323   
C66      C      0.832090000000     0.199830000000     0.636080000000     0.471703   
C67      C      0.818360000000     0.161530000000     0.716350000000     0.472882   
C68      C      0.862650000000     0.256360000000     0.688890000000     0.484521   
C69      C      0.689920000000     0.847890000000     0.688550000000     0.472957   
C70      C      0.686600000000     0.850120000000     0.824240000000     0.487075   
C71      C      0.671900000000     0.801160000000     0.759090000000     0.486026   
C72      C      0.704800000000     0.896600000000     0.753760000000     0.485627   
C73      C      0.750650000000     0.966790000000     0.752780000000    -0.0348609  
C74      C      0.767060000000     0.094290000000     0.726440000000    -0.032048   
C75      C      0.821430000000     0.123670000000     0.732680000000    -0.00151701 
C76      C      0.779750000000     0.122780000000     0.735020000000    -0.00144049 
C77      C      0.762850000000     0.042340000000     0.771910000000    -0.0543514  
C78      C      0.750480000000     0.016100000000     0.706700000000    -0.0543454  
C79      C      0.768840000000     0.056070000000     0.739750000000     0.0608443  
C80      C      0.806730000000     0.095120000000     0.724340000000    -0.0320124  
C81      C      0.744850000000     0.002380000000     0.738860000000     0.0603075  
C82      C      0.709220000000     0.961360000000     0.754360000000    -0.0837362  
C83      C      0.750940000000     0.015720000000     0.771610000000    -0.0562004  
C84      C      0.696620000000     0.932590000000     0.746450000000     0.173278   
C85      C      0.741000000000     0.938880000000     0.743580000000     0.00255906 
C86      C      0.762320000000     0.042730000000     0.707010000000    -0.0566848  
C87      C      0.865330000000     0.311290000000     0.646890000000    -0.0348982  
C88      C      0.949870000000     0.406320000000     0.518110000000    -0.0317489  
C89      C      0.923780000000     0.430950000000     0.487610000000    -0.00196565 
C90      C      0.958420000000     0.420640000000     0.482590000000    -0.00154084 
C91      C      0.898450000000     0.352820000000     0.547520000000    -0.0544824  
C92      C      0.912830000000     0.371240000000     0.617270000000    -0.0546111  
C93      C      0.913430000000     0.379110000000     0.553230000000     0.0609178  
C94      C      0.915900000000     0.415930000000     0.522880000000    -0.0321061  
C95      C      0.898230000000     0.344920000000     0.611500000000     0.0605299  
C96      C      0.905550000000     0.313170000000     0.639190000000    -0.0843658  
C97      C      0.890920000000     0.335800000000     0.576310000000    -0.0563091  
C98      C      0.901660000000     0.297870000000     0.673740000000     0.173029   
C99      C      0.860400000000     0.295880000000     0.681480000000    -0.000253916
C100     C      0.920480000000     0.388250000000     0.588460000000    -0.0566279  
C101     C      0.088020000000     0.615830000000     0.416830000000    -0.0347469  
C102     C      0.127600000000     0.749250000000     0.374210000000    -0.0320821  
C103     C      0.182080000000     0.775450000000     0.371420000000    -0.00149972 
C104     C      0.142480000000     0.778190000000     0.379080000000    -0.001512   
C105     C      0.122290000000     0.698840000000     0.423620000000    -0.0545493  
C106     C      0.101460000000     0.668760000000     0.362580000000    -0.0544595  
C107     C      0.127390000000     0.710410000000     0.389820000000     0.0608617  
C108     C      0.165300000000     0.746620000000     0.366920000000    -0.0319859  
C109     C      0.095910000000     0.657250000000     0.396450000000     0.0603167  
C110     C      0.054900000000     0.626100000000     0.417020000000    -0.0838057  
C111     C      0.106680000000     0.672500000000     0.427050000000    -0.056282   
C112     C      0.034400000000     0.598050000000     0.413940000000     0.173222   
C113     C      0.069600000000     0.587250000000     0.413080000000     0.00128699 
C114     C      0.117070000000     0.695120000000     0.359160000000    -0.0567601  
C115     C      0.629310000000     0.740810000000     0.796150000000    -0.034849   
C116     C      0.618760000000     0.637340000000     0.911220000000    -0.032084   
C117     C      0.573080000000     0.627490000000     0.947730000000    -0.00158354 
C118     C      0.610270000000     0.621000000000     0.945270000000    -0.00196447 
C119     C      0.632430000000     0.699960000000     0.890160000000    -0.0544876  
C120     C      0.624190000000     0.683950000000     0.818700000000    -0.054521   
C121     C      0.619680000000     0.673840000000     0.882350000000     0.0609126  
C122     C      0.582370000000     0.643230000000     0.913390000000    -0.0318382  
C123     C      0.636860000000     0.710080000000     0.826520000000     0.0605931  
C124     C      0.671490000000     0.746430000000     0.797220000000    -0.0846387  
C125     C      0.640860000000     0.717990000000     0.862590000000    -0.0561834  
C126     C      0.678670000000     0.763240000000     0.763520000000     0.173021   
C127     C      0.635650000000     0.757310000000     0.762460000000    -9.16347e-05
C128     C      0.615510000000     0.665920000000     0.846290000000    -0.0565495  
C129     C      0.327200000000     0.084600000000     0.181400000000    -0.0350682  
C130     C      0.238980000000     0.970630000000     0.281760000000    -0.0320045  
C131     C      0.264540000000     0.940930000000     0.283650000000    -0.00128869 
C132     C      0.223390000000     0.941890000000     0.287780000000    -0.000865362
C133     C      0.273000000000     0.006040000000     0.208630000000    -0.0544149  
C134     C      0.294580000000     0.048100000000     0.254630000000    -0.0542205  
C135     C      0.272810000000     0.002140000000     0.245640000000     0.0609585  
C136     C      0.277580000000     0.969820000000     0.277640000000    -0.0320353  
C137     C      0.294500000000     0.052000000000     0.217630000000     0.0599119  
C138     C      0.287150000000     0.082320000000     0.185190000000    -0.084024   
C139     C      0.283780000000     0.030710000000     0.194620000000    -0.0561107  
C140     C      0.298250000000     0.110870000000     0.176960000000     0.172888   
C141     C      0.341040000000     0.113270000000     0.174370000000     0.00235869 
C142     C      0.283880000000     0.023400000000     0.268650000000    -0.0569905  
C143     C      0.490400000000     0.422400000000     0.006650000000    -0.0348361  
C144     C      0.386820000000     0.299560000000     0.068080000000    -0.0319638  
C145     C      0.411800000000     0.269650000000     0.060480000000    -0.00159838 
C146     C      0.371160000000     0.270410000000     0.066940000000    -0.00171245 
C147     C      0.427650000000     0.345300000000     0.007050000000    -0.054625   
C148     C      0.447080000000     0.378880000000     0.065030000000    -0.0543236  
C149     C      0.423370000000     0.335570000000     0.041990000000     0.0609     
C150     C      0.425590000000     0.298770000000     0.062170000000    -0.031828   
C151     C      0.451540000000     0.388610000000     0.030080000000     0.0599565  
C152     C      0.453710000000     0.426870000000     0.005910000000    -0.0839423  
C153     C      0.441630000000     0.371570000000     0.001010000000    -0.0561496  
C154     C      0.469160000000     0.456180000000     0.006650000000     0.173088   
C155     C      0.508120000000     0.451120000000     0.008790000000     0.00203089 
C156     C      0.433170000000     0.352590000000     0.071070000000    -0.056963   
C157     C      0.667610000000     0.824520000000     0.409650000000    -0.035135   
C158     C      0.712900000000     0.847690000000     0.595980000000    -0.0318117  
C159     C      0.669120000000     0.844520000000     0.630890000000    -0.000867723
C160     C      0.715540000000     0.858400000000     0.633860000000    -0.00177046 
C161     C      0.692980000000     0.862190000000     0.514270000000    -0.0544792  
C162     C      0.690770000000     0.817630000000     0.488830000000    -0.054431   
C163     C      0.692680000000     0.844450000000     0.538690000000     0.0609876  
C164     C      0.668770000000     0.834060000000     0.593520000000    -0.0320353  
C165     C      0.691640000000     0.835660000000     0.464390000000     0.0603372  
C166     C      0.712980000000     0.851640000000     0.407620000000    -0.0845373  
C167     C      0.692220000000     0.857800000000     0.477440000000    -0.0561917  
C168     C      0.713750000000     0.844000000000     0.368670000000     0.172842   
C169     C      0.667070000000     0.815940000000     0.370930000000     0.00027864 
C170     C      0.691000000000     0.821780000000     0.525710000000    -0.0567248  
C171     C      0.660630000000     0.848920000000     0.914470000000    -0.0347662  
C172     C      0.697720000000     0.885590000000     0.101320000000    -0.0320332  
C173     C      0.649810000000     0.862420000000     0.138430000000    -0.00177245 
C174     C      0.695420000000     0.895460000000     0.138060000000    -0.00177539 
C175     C      0.676180000000     0.884750000000     0.017970000000    -0.0544671  
C176     C      0.680430000000     0.842090000000     0.000630000000    -0.0544055  
C177     C      0.676030000000     0.868850000000     0.045380000000     0.0609164  
C178     C      0.653160000000     0.853630000000     0.101450000000    -0.032035   
C179     C      0.679920000000     0.857610000000     0.973160000000     0.0603788  
C180     C      0.705560000000     0.868230000000     0.919990000000    -0.0837227  
C181     C      0.678380000000     0.879410000000     0.982170000000    -0.0561134  
C182     C      0.707830000000     0.857760000000     0.883470000000     0.17366    
C183     C      0.660450000000     0.837230000000     0.878220000000     0.00154068 
C184     C      0.678790000000     0.847740000000     0.036480000000    -0.0565871  
C185     C      0.758800000000     0.694280000000     0.191090000000    -0.0347971  
C186     C      0.740420000000     0.804410000000     0.210350000000    -0.0319468  
C187     C      0.686690000000     0.784540000000     0.205230000000    -0.00135703 
C188     C      0.730460000000     0.822340000000     0.201240000000    -0.00140349 
C189     C      0.738960000000     0.753120000000     0.168710000000    -0.0544876  
C190     C      0.751520000000     0.741240000000     0.235190000000    -0.054346   
C191     C      0.733460000000     0.762000000000     0.200110000000     0.0610507  
C192     C      0.698240000000     0.767880000000     0.214070000000    -0.032235   
C193     C      0.757590000000     0.732910000000     0.203750000000     0.0604204  
C194     C      0.796970000000     0.735360000000     0.190700000000    -0.0836531  
C195     C      0.750900000000     0.738680000000     0.170380000000    -0.0561448  
C196     C      0.813140000000     0.723230000000     0.198740000000     0.172549   
C197     C      0.773200000000     0.680380000000     0.199600000000     0.000263117
C198     C      0.739520000000     0.755640000000     0.233520000000    -0.0567025  
C199     C      0.615660000000     0.997860000000     0.436200000000    -0.0347299  
C200     C      0.624810000000     0.901190000000     0.329820000000    -0.0318028  
C201     C      0.675420000000     0.927070000000     0.300760000000    -0.00203718 
C202     C      0.630770000000     0.890530000000     0.296540000000    -0.00155634 
C203     C      0.622440000000     0.955130000000     0.347470000000    -0.054464   
C204     C      0.625410000000     0.946290000000     0.420380000000    -0.0543664  
C205     C      0.633090000000     0.940450000000     0.358110000000     0.0610592  
C206     C      0.667530000000     0.936450000000     0.333710000000    -0.0317797  
C207     C      0.614550000000     0.960810000000     0.409720000000     0.0602476  
C208     C      0.576800000000     0.957420000000     0.434110000000    -0.0836556  
C209     C      0.613160000000     0.965200000000     0.372930000000    -0.0560597  
C210     C      0.566010000000     0.964650000000     0.466190000000     0.172463   
C211     C      0.606810000000     0.006650000000     0.468590000000     0.00024818 
C212     C      0.634550000000     0.936080000000     0.394880000000    -0.0567791  
C213     C      0.016100000000     0.517770000000     0.612590000000    -0.0353283  
C214     C      0.026160000000     0.552300000000     0.800500000000    -0.0318595  
C215     C      0.989180000000     0.503720000000     0.831670000000    -0.000684973
C216     C      0.018970000000     0.551150000000     0.839920000000    -0.00176433 
C217     C      0.986300000000     0.525620000000     0.720350000000    -0.0543506  
C218     C      0.032890000000     0.546210000000     0.687040000000    -0.0540064  
C219     C      0.007850000000     0.534570000000     0.741500000000     0.0608232  
C220     C      0.998230000000     0.506790000000     0.792900000000    -0.0323469  
C221     C      0.011350000000     0.537520000000     0.665890000000     0.0599727  
C222     C      0.995180000000     0.542580000000     0.607890000000    -0.0846593  
C223     C      0.987850000000     0.526480000000     0.683010000000    -0.0555567  
C224     C      0.002560000000     0.548840000000     0.568370000000     0.172702   
C225     C      0.025160000000     0.523680000000     0.573820000000     0.00165846 
C226     C      0.031220000000     0.544260000000     0.724340000000    -0.0560485  
C227     C      0.004570000000     0.478920000000     0.301130000000    -0.0344304  
C228     C      0.027220000000     0.520170000000     0.114690000000    -0.0323968  
C229     C      0.013420000000     0.475660000000     0.069880000000    -0.00158654 
C230     C      0.040660000000     0.523100000000     0.079010000000    -0.00111198 
C231     C      0.029440000000     0.501500000000     0.193560000000    -0.0544085  
C232     C      0.979160000000     0.479970000000     0.212670000000    -0.0542947  
C233     C      0.011160000000     0.492670000000     0.166640000000     0.0606206  
C234     C      0.001200000000     0.474240000000     0.106000000000    -0.0316293  
C235     C      0.997370000000     0.488070000000     0.239620000000     0.0600375  
C236     C      0.986610000000     0.506110000000     0.289730000000    -0.0840978  
C237     C      0.022780000000     0.499840000000     0.229610000000    -0.0556614  
C238     C      0.973150000000     0.499280000000     0.326170000000     0.173599   
C239     C      0.991890000000     0.471090000000     0.337610000000     0.00100451 
C240     C      0.985910000000     0.482720000000     0.176550000000    -0.0562294  
C241     C      0.907400000000     0.630320000000     0.087420000000    -0.0346183  
C242     C      0.935640000000     0.535270000000     0.010900000000    -0.0320336  
C243     C      0.985140000000     0.570000000000     0.982050000000    -0.00178582 
C244     C      0.946820000000     0.525770000000     0.982250000000    -0.00191432 
C245     C      0.919370000000     0.582810000000     0.012260000000    -0.0546198  
C246     C      0.921470000000     0.581500000000     0.087030000000    -0.0543851  
C247     C      0.932420000000     0.572090000000     0.028610000000     0.0609246  
C248     C      0.972460000000     0.577530000000     0.010860000000    -0.0318074  
C249     C      0.908540000000     0.592370000000     0.070670000000     0.0602309  
C250     C      0.869440000000     0.589310000000     0.088270000000    -0.0834987  
C251     C      0.907500000000     0.592870000000     0.032980000000    -0.0561973  
C252     C      0.857170000000     0.598100000000     0.116380000000     0.17284    
C253     C      0.897560000000     0.641140000000     0.115970000000     0.000858779
C254     C      0.933360000000     0.571430000000     0.066280000000    -0.056849   
C255     C      0.358240000000     0.196430000000     0.780960000000    -0.034789   
C256     C      0.346120000000     0.148880000000     0.963830000000    -0.0323542  
C257     C      0.318430000000     0.168260000000     0.003890000000    -0.00053582 
C258     C      0.354760000000     0.158130000000     0.002050000000     0.000426953
C259     C      0.360100000000     0.178900000000     0.890850000000    -0.0535073  
C260     C      0.316010000000     0.153530000000     0.851080000000    -0.0538918  
C261     C      0.337270000000     0.164520000000     0.908810000000     0.0605994  
C262     C      0.313850000000     0.160060000000     0.964590000000    -0.0319017  
C263     C      0.338720000000     0.168800000000     0.833260000000     0.0603521  
C264     C      0.337490000000     0.150560000000     0.774950000000    -0.0842575  
C265     C      0.361000000000     0.180540000000     0.853530000000    -0.0554926  
C266     C      0.330460000000     0.151470000000     0.735660000000     0.174757   
C267     C      0.352700000000     0.199980000000     0.742250000000     0.00168331 
C268     C      0.315260000000     0.150880000000     0.888330000000    -0.0554304  
C269     C      0.390880000000     0.223940000000     0.462430000000    -0.0347382  
C270     C      0.354970000000     0.213160000000     0.274920000000    -0.0321153  
C271     C      0.398930000000     0.230030000000     0.229710000000    -0.00197934 
C272     C      0.355550000000     0.223390000000     0.237290000000    -0.00117615 
C273     C      0.380010000000     0.237200000000     0.352250000000    -0.0544895  
C274     C      0.376890000000     0.191980000000     0.376470000000    -0.0543801  
C275     C      0.380230000000     0.220000000000     0.327350000000     0.0609555  
C276     C      0.397350000000     0.220260000000     0.268020000000    -0.0319782  
C277     C      0.376990000000     0.209330000000     0.401390000000     0.0604227  
C278     C      0.348300000000     0.190990000000     0.450840000000    -0.0841052  
C279     C      0.377950000000     0.231800000000     0.388880000000    -0.0561207  
C280     C      0.345440000000     0.178950000000     0.488020000000     0.17396    
C281     C      0.390580000000     0.214000000000     0.500080000000     0.00126497 
C282     C      0.378040000000     0.196960000000     0.339760000000    -0.0564744  
C283     C      0.405200000000     0.119580000000     0.607820000000    -0.0349273  
C284     C      0.511160000000     0.104720000000     0.551450000000    -0.0318109  
C285     C      0.486640000000     0.049400000000     0.559060000000    -0.00108493 
C286     C      0.527120000000     0.091840000000     0.552710000000    -0.00189319 
C287     C      0.468450000000     0.106640000000     0.612320000000    -0.0544524  
C288     C      0.451310000000     0.122880000000     0.554190000000    -0.0542092  
C289     C      0.474260000000     0.102900000000     0.577390000000     0.0611055  
C290     C      0.472650000000     0.064260000000     0.557000000000    -0.03207    
C291     C      0.445510000000     0.126630000000     0.589110000000     0.0603324  
C292     C      0.441570000000     0.160730000000     0.616850000000    -0.0843615  
C293     C      0.454080000000     0.118260000000     0.618260000000    -0.0561485  
C294     C      0.426630000000     0.174830000000     0.615070000000     0.174      
C295     C      0.387730000000     0.130430000000     0.603520000000     0.00391519 
C296     C      0.465430000000     0.110990000000     0.548230000000    -0.0567921  
C297     C      0.100530000000     0.490610000000     0.910390000000    -0.0349321  
C298     C      0.125660000000     0.388020000000     0.861760000000    -0.0321457  
C299     C      0.179510000000     0.412170000000     0.850230000000    -0.00131635 
C300     C      0.135750000000     0.374520000000     0.838260000000    -0.00108982 
C301     C      0.123540000000     0.443130000000     0.851600000000    -0.0545984  
C302     C      0.112730000000     0.440160000000     0.924760000000    -0.0543379  
C303     C      0.130710000000     0.429460000000     0.874290000000     0.0608882  
C304     C      0.167000000000     0.423720000000     0.872980000000    -0.0321503  
C305     C      0.105030000000     0.453340000000     0.901920000000     0.0600472  
C306     C      0.064150000000     0.449130000000     0.902240000000    -0.0841549  
C307     C      0.110770000000     0.454960000000     0.865150000000    -0.0562547  
C308     C      0.047060000000     0.456340000000     0.922800000000     0.173563   
C309     C      0.085980000000     0.500420000000     0.931950000000     0.00154662 
C310     C      0.125460000000     0.428270000000     0.911180000000    -0.0569647  
C311     C      0.310990000000     0.251550000000     0.650130000000    -0.0346939  
C312     C      0.214490000000     0.265540000000     0.745190000000    -0.031834   
C313     C      0.248040000000     0.311960000000     0.784260000000    -0.0017143  
C314     C      0.204730000000     0.273700000000     0.777330000000    -0.00202503 
C315     C      0.262040000000     0.250320000000     0.734290000000    -0.054371   
C316     C      0.260620000000     0.259880000000     0.661250000000    -0.0545796  
C317     C      0.250860000000     0.264390000000     0.723030000000     0.0611418  
C318     C      0.256130000000     0.302530000000     0.751720000000    -0.0318115  
C319     C      0.271940000000     0.245950000000     0.672530000000     0.0607226  
C320     C      0.272920000000     0.209910000000     0.645700000000    -0.0845075  
C321     C      0.272590000000     0.241210000000     0.709370000000    -0.0561311  
C322     C      0.284140000000     0.202130000000     0.614710000000     0.173087   
C323     C      0.322830000000     0.244860000000     0.619120000000     0.000183251
C324     C      0.250220000000     0.269140000000     0.686210000000    -0.0565964  
C325     C      0.497860000000     0.506750000000     0.631430000000    -0.0349426  
C326     C      0.536600000000     0.504040000000     0.816330000000    -0.0321808  
C327     C      0.513660000000     0.530540000000     0.851170000000    -0.00148092 
C328     C      0.547560000000     0.517900000000     0.851740000000    -0.000674333
C329     C      0.535840000000     0.525340000000     0.732470000000    -0.0541323  
C330     C      0.494660000000     0.478220000000     0.714180000000    -0.0543784  
C331     C      0.520530000000     0.509030000000     0.759590000000     0.0607402  
C332     C      0.504850000000     0.516330000000     0.815530000000    -0.0318912  
C333     C      0.509490000000     0.494920000000     0.687000000000     0.0603787  
C334     C      0.520250000000     0.482970000000     0.630600000000    -0.0837892  
C335     C      0.530570000000     0.518340000000     0.696490000000    -0.0562683  
C336     C      0.510430000000     0.472710000000     0.592710000000     0.173183   
C337     C      0.487160000000     0.496980000000     0.594210000000     0.00145739 
C338     C      0.500210000000     0.485030000000     0.750240000000    -0.0566766  
C339     C      0.557230000000     0.533840000000     0.316360000000    -0.0351024  
C340     C      0.531410000000     0.557470000000     0.132630000000    -0.0319406  
C341     C      0.570700000000     0.553220000000     0.095390000000    -0.00134753 
C342     C      0.538020000000     0.566860000000     0.093970000000    -0.00206027 
C343     C      0.567140000000     0.572840000000     0.212950000000    -0.0546419  
C344     C      0.526400000000     0.528360000000     0.239830000000    -0.0541709  
C345     C      0.549710000000     0.554880000000     0.189110000000     0.0607305  
C346     C      0.562560000000     0.544010000000     0.133840000000    -0.032159   
C347     C      0.543550000000     0.546550000000     0.263710000000     0.0599967  
C348     C      0.541170000000     0.562560000000     0.322600000000    -0.0842126  
C349     C      0.564330000000     0.568660000000     0.249920000000    -0.0561775  
C350     C      0.532060000000     0.553950000000     0.361180000000     0.173131   
C351     C      0.547960000000     0.521830000000     0.353140000000     0.00381874 
C352     C      0.529530000000     0.532260000000     0.202850000000    -0.0567253  
C353     C      0.875830000000     0.234400000000     0.052380000000    -0.0346811  
C354     C      0.837760000000     0.211020000000     0.865640000000    -0.0326815  
C355     C      0.880280000000     0.237580000000     0.817540000000    -0.00221362 
C356     C      0.834210000000     0.220530000000     0.829240000000    -0.000735035
C357     C      0.856450000000     0.233740000000     0.942140000000    -0.0541069  
C358     C      0.881250000000     0.208260000000     0.964950000000    -0.0538885  
C359     C      0.866070000000     0.224010000000     0.916440000000     0.0601195  
C360     C      0.882090000000     0.228000000000     0.854700000000    -0.0318102  
C361     C      0.871860000000     0.218210000000     0.990650000000     0.0596418  
C362     C      0.858090000000     0.189040000000     0.041060000000    -0.0839272  
C363     C      0.858690000000     0.230380000000     0.978730000000    -0.0553727  
C364     C      0.866260000000     0.184740000000     0.078150000000     0.173354   
C365     C      0.884400000000     0.231850000000     0.089780000000     0.000538661
C366     C      0.877920000000     0.210510000000     0.928360000000    -0.0555813  
C367     C      0.813340000000     0.197790000000     0.352890000000    -0.0345743  
C368     C      0.836500000000     0.182080000000     0.541140000000    -0.0319604  
C369     C      0.810420000000     0.202650000000     0.582540000000    -0.00165717 
C370     C      0.846820000000     0.193610000000     0.577940000000    -0.000934969
C371     C      0.838340000000     0.207980000000     0.462700000000    -0.0542593  
C372     C      0.796910000000     0.163900000000     0.436350000000    -0.0544657  
C373     C      0.820670000000     0.190530000000     0.486770000000     0.0607392  
C374     C      0.802730000000     0.191270000000     0.544950000000    -0.0319128  
C375     C      0.814350000000     0.181620000000     0.412240000000     0.0602857  
C376     C      0.827120000000     0.166780000000     0.360860000000    -0.0837857  
C377     C      0.835500000000     0.203470000000     0.425840000000    -0.056149   
C378     C      0.820140000000     0.157290000000     0.322080000000     0.173426   
C379     C      0.805860000000     0.189530000000     0.314050000000     8.32715e-05
C380     C      0.800150000000     0.168050000000     0.473320000000    -0.0565239  
C381     C      0.182180000000     0.346940000000     0.480950000000    -0.0350113  
C382     C      0.216080000000     0.389460000000     0.664810000000    -0.0320691  
C383     C      0.169170000000     0.348520000000     0.693470000000    -0.000951531
C384     C      0.209550000000     0.389930000000     0.704260000000    -0.00193123 
C385     C      0.180980000000     0.381670000000     0.583300000000    -0.0545758  
C386     C      0.216750000000     0.372360000000     0.551930000000    -0.0542752  
C387     C      0.197160000000     0.377690000000     0.605220000000     0.0610168  
C388     C      0.177630000000     0.349280000000     0.654890000000    -0.0320421  
C389     C      0.200420000000     0.376110000000     0.530000000000     0.0601692  
C390     C      0.199180000000     0.391860000000     0.470160000000    -0.0841196  
C391     C      0.182230000000     0.380480000000     0.546080000000    -0.0560366  
C392     C      0.204580000000     0.389600000000     0.430530000000     0.172834   
C393     C      0.187960000000     0.341950000000     0.443180000000     0.00308247 
C394     C      0.214950000000     0.372700000000     0.589180000000    -0.0567922  
C395     C      0.212600000000     0.324090000000     0.972490000000    -0.0352587  
C396     C      0.183590000000     0.347650000000     0.152110000000    -0.0315664  
C397     C      0.186510000000     0.311070000000     0.199940000000    -0.000418426
C398     C      0.173350000000     0.344290000000     0.190040000000    -0.00182094 
C399     C      0.173190000000     0.299130000000     0.083920000000    -0.0544905  
C400     C      0.201720000000     0.343330000000     0.043850000000    -0.0533564  
C401     C      0.185550000000     0.322770000000     0.101420000000     0.0608744  
C402     C      0.196610000000     0.316240000000     0.161510000000    -0.0325927  
C403     C      0.188560000000     0.319820000000     0.026120000000     0.0593379  
C404     C      0.168020000000     0.297500000000     0.969940000000    -0.0848914  
C405     C      0.175060000000     0.297490000000     0.046840000000    -0.0547683  
C406     C      0.167110000000     0.302160000000     0.929510000000     0.174301   
C407     C      0.215040000000     0.334300000000     0.934500000000     0.0067973  
C408     C      0.200880000000     0.344800000000     0.081070000000    -0.0562262  
C409     C      0.079310000000     0.326560000000     0.305230000000    -0.0348784  
C410     C      0.952420000000     0.227620000000     0.253260000000    -0.0316726  
C411     C      0.924180000000     0.254480000000     0.251100000000    -0.00124196 
C412     C      0.923880000000     0.212330000000     0.255020000000    -0.00203186 
C413     C      0.998100000000     0.273470000000     0.308860000000    -0.0544794  
C414     C      0.030700000000     0.283860000000     0.251170000000    -0.0542305  
C415     C      0.988380000000     0.266470000000     0.274170000000     0.0609028  
C416     C      0.952750000000     0.267810000000     0.249290000000    -0.0321282  
C417     C      0.040370000000     0.290160000000     0.285990000000     0.0601669  
C418     C      0.072250000000     0.284170000000     0.314480000000    -0.0847104  
C419     C      0.023880000000     0.285350000000     0.314830000000    -0.0560745  
C420     C      0.100170000000     0.292600000000     0.313060000000     0.174197   
C421     C      0.107650000000     0.338230000000     0.302000000000     0.00329869 
C422     C      0.004950000000     0.272250000000     0.245160000000    -0.0565085  
C423     C      0.409310000000     0.455210000000     0.436400000000    -0.0355098  
C424     C      0.303070000000     0.413170000000     0.320320000000    -0.0322529  
C425     C      0.270970000000     0.358940000000     0.334320000000    -0.000506903
C426     C      0.278920000000     0.397750000000     0.298590000000    -0.00223501 
C427     C      0.350160000000     0.396280000000     0.355640000000    -0.0537974  
C428     C      0.373280000000     0.447390000000     0.375740000000    -0.0530565  
C429     C      0.337420000000     0.409830000000     0.349980000000     0.0597871  
C430     C      0.294170000000     0.376240000000     0.356400000000    -0.0324792  
C431     C      0.385410000000     0.433440000000     0.383270000000     0.0585405  
C432     C      0.423680000000     0.432240000000     0.400640000000    -0.0837979  
C433     C      0.373310000000     0.407500000000     0.372970000000    -0.0540727  
C434     C      0.450900000000     0.448730000000     0.413890000000     0.172051   
C435     C      0.435510000000     0.476090000000     0.446570000000     0.00536963 
C436     C      0.349380000000     0.435700000000     0.360520000000    -0.0551682  
C437     C      0.542980000000     0.001430000000     0.661430000000    -0.0345802  
C438     C      0.546850000000     0.045180000000     0.846700000000    -0.0322528  
C439     C      0.523220000000     0.996200000000     0.883970000000    -0.00220861 
C440     C      0.533030000000     0.042520000000     0.881990000000    -0.00122959 
C441     C      0.527420000000     0.022550000000     0.763840000000    -0.0542942  
C442     C      0.572500000000     0.024850000000     0.745910000000    -0.0545611  
C443     C      0.543110000000     0.022770000000     0.791160000000     0.0605372  
C444     C      0.537260000000     0.001220000000     0.848520000000    -0.031494   
C445     C      0.556280000000     0.023490000000     0.718580000000     0.0600917  
C446     C      0.572030000000     0.047280000000     0.663450000000    -0.0835775  
C447     C      0.534030000000     0.023290000000     0.727870000000    -0.0561364  
C448     C      0.582550000000     0.046740000000     0.626260000000     0.172495   
C449     C      0.552510000000     0.999470000000     0.624470000000     4.88331e-05
C450     C      0.566220000000     0.024870000000     0.781910000000    -0.0565127  
C451     C      0.497690000000     0.033700000000     0.162320000000    -0.0346204  
C452     C      0.539710000000     0.041450000000     0.345640000000    -0.0326041  
C453     C      0.499420000000     0.020430000000     0.398090000000    -0.00157212 
C454     C      0.544450000000     0.052550000000     0.383590000000    -0.000667088
C455     C      0.517570000000     0.047720000000     0.273680000000    -0.0538809  
C456     C      0.493650000000     0.998300000000     0.246050000000    -0.0539347  
C457     C      0.509320000000     0.027030000000     0.297390000000     0.0598836  
C458     C      0.496310000000     0.011200000000     0.359270000000    -0.0321435  
C459     C      0.502050000000     0.018980000000     0.222330000000     0.0597489  
C460     C      0.516500000000     0.007180000000     0.169380000000    -0.0837309  
C461     C      0.514610000000     0.043910000000     0.236640000000    -0.0553757  
C462     C      0.508210000000     0.995550000000     0.131860000000     0.173666   
C463     C      0.489040000000     0.024010000000     0.124170000000     0.00015131 
C464     C      0.497730000000     0.002150000000     0.282920000000    -0.0551901  
C465     C      0.738810000000     0.155640000000     0.140610000000    -0.0348268  
C466     C      0.626870000000     0.055950000000     0.049140000000    -0.0314567  
C467     C      0.597570000000     0.081590000000     0.041400000000    -0.000721765
C468     C      0.598570000000     0.039500000000     0.044260000000    -0.00165134 
C469     C      0.662290000000     0.096610000000     0.117930000000    -0.0543122  
C470     C      0.703040000000     0.115960000000     0.071050000000    -0.0541557  
C471     C      0.658070000000     0.093160000000     0.080980000000     0.061278   
C472     C      0.625940000000     0.095260000000     0.046260000000    -0.0317882  
C473     C      0.707260000000     0.119270000000     0.108060000000     0.0602207  
C474     C      0.738090000000     0.115510000000     0.143340000000    -0.0838547  
C475     C      0.686630000000     0.109560000000     0.131480000000    -0.0560788  
C476     C      0.766230000000     0.128190000000     0.151140000000     0.173294   
C477     C      0.766970000000     0.171080000000     0.147150000000     0.00240724 
C478     C      0.678660000000     0.103050000000     0.057490000000    -0.05694    
C479     C      0.216470000000     0.845410000000     0.673350000000    -0.0349532  
C480     C      0.199090000000     0.879330000000     0.490020000000    -0.0319141  
C481     C      0.239700000000     0.878550000000     0.451220000000    -0.00188813 
C482     C      0.206460000000     0.891210000000     0.452640000000    -0.00229401 
C483     C      0.233640000000     0.889540000000     0.571280000000    -0.0544402  
C484     C      0.190920000000     0.845010000000     0.593610000000    -0.0539483  
C485     C      0.216390000000     0.873430000000     0.545630000000     0.0604751  
C486     C      0.230980000000     0.866750000000     0.488530000000    -0.0321298  
C487     C      0.207630000000     0.861660000000     0.619360000000     0.0597316  
C488     C      0.204120000000     0.877240000000     0.678000000000    -0.0838279  
C489     C      0.229580000000     0.883600000000     0.607780000000    -0.0558844  
C490     C      0.192900000000     0.868490000000     0.715600000000     0.17258    
C491     C      0.204940000000     0.833430000000     0.709540000000     0.00264962 
C492     C      0.195380000000     0.850560000000     0.557050000000    -0.0565224  
C493     C      0.157800000000     0.829570000000     0.989510000000    -0.0345461  
C494     C      0.195380000000     0.823320000000     0.174350000000    -0.0320695  
C495     C      0.169890000000     0.845530000000     0.213600000000    -0.00178117 
C496     C      0.206560000000     0.836860000000     0.209900000000    -0.000952449
C497     C      0.192830000000     0.845330000000     0.092990000000    -0.0542096  
C498     C      0.151930000000     0.798670000000     0.072470000000    -0.0545169  
C499     C      0.177380000000     0.828280000000     0.119390000000     0.0605109  
C500     C      0.161250000000     0.831980000000     0.177460000000    -0.0318685  
C501     C      0.166900000000     0.816120000000     0.046060000000     0.0599752  
C502     C      0.177800000000     0.803580000000     0.990370000000    -0.0834723  
C503     C      0.187890000000     0.839270000000     0.056680000000    -0.0560999  
C504     C      0.168290000000     0.793480000000     0.952330000000     0.172454   
C505     C      0.147480000000     0.820280000000     0.951930000000     0.000280187
C506     C      0.157240000000     0.804480000000     0.108850000000    -0.0566086  
C507     C      0.404680000000     0.977480000000     0.966560000000    -0.0349879  
C508     C      0.291700000000     0.876840000000     0.879760000000    -0.0315908  
C509     C      0.258200000000     0.897960000000     0.880060000000    -0.00120051 
C510     C      0.263620000000     0.858640000000     0.875910000000    -0.00157867 
C511     C      0.327500000000     0.916570000000     0.949390000000    -0.0543889  
C512     C      0.366410000000     0.938530000000     0.899470000000    -0.0540854  
C513     C      0.321910000000     0.913890000000     0.912730000000     0.061119   
C514     C      0.286700000000     0.913890000000     0.883640000000    -0.0318882  
C515     C      0.372030000000     0.940730000000     0.936130000000     0.0600774  
C516     C      0.404520000000     0.937670000000     0.968390000000    -0.0841814  
C517     C      0.352310000000     0.929980000000     0.961120000000    -0.0560607  
C518     C      0.433020000000     0.950650000000     0.973420000000     0.173256   
C519     C      0.433080000000     0.993390000000     0.969730000000     0.00291534 
C520     C      0.341570000000     0.925350000000     0.887750000000    -0.056839   
C521     C      0.819510000000     0.647380000000     0.814550000000    -0.0351801  
C522     C      0.837250000000     0.691780000000     0.000230000000    -0.0315403  
C523     C      0.797140000000     0.647600000000     0.036490000000    -0.00116819 
C524     C      0.829890000000     0.694150000000     0.038450000000    -0.00151313 
C525     C      0.804260000000     0.672100000000     0.918210000000    -0.0546563  
C526     C      0.845780000000     0.669170000000     0.894730000000    -0.054072   
C527     C      0.820440000000     0.670820000000     0.943380000000     0.0612579  
C528     C      0.805610000000     0.646540000000     0.998270000000    -0.0321387  
C529     C      0.830070000000     0.671280000000     0.869550000000     0.0601419  
C530     C      0.835680000000     0.692720000000     0.812270000000    -0.0842274  
C531     C      0.808760000000     0.671980000000     0.881550000000    -0.0560772  
C532     C      0.846630000000     0.695240000000     0.774540000000     0.172928   
C533     C      0.830640000000     0.646880000000     0.778340000000     0.00324956 
C534     C      0.840900000000     0.668600000000     0.931330000000    -0.0568275  
C535     C      0.877100000000     0.675010000000     0.308540000000    -0.0349315  
C536     C      0.852190000000     0.639550000000     0.498230000000    -0.0321848  
C537     C      0.879750000000     0.689210000000     0.532980000000    -0.00185211 
C538     C      0.860960000000     0.641300000000     0.537000000000    -0.00112522 
C539     C      0.880980000000     0.656650000000     0.418230000000    -0.054557   
C540     C      0.841150000000     0.660170000000     0.388640000000    -0.0542991  
C541     C      0.864920000000     0.660380000000     0.440750000000     0.0609896  
C542     C      0.870620000000     0.685640000000     0.494240000000    -0.0318229  
C543     C      0.857780000000     0.657460000000     0.366020000000     0.0604278  
C544     C      0.843220000000     0.631800000000     0.312280000000    -0.0844953  
C545     C      0.877300000000     0.654840000000     0.381170000000    -0.0562795  
C546     C      0.833750000000     0.632020000000     0.274280000000     0.174456   
C547     C      0.870550000000     0.678730000000     0.270480000000     0.00360053 
C548     C      0.844420000000     0.661280000000     0.425730000000    -0.0567051  
C549     C      0.629860000000     0.561600000000     0.532070000000    -0.034493   
C550     C      0.750800000000     0.655620000000     0.605520000000    -0.0317013  
C551     C      0.762170000000     0.617820000000     0.634810000000    -0.00150121 
C552     C      0.772220000000     0.663890000000     0.632450000000    -0.00229838 
C553     C      0.685960000000     0.609590000000     0.609460000000    -0.0542923  
C554     C      0.686930000000     0.613090000000     0.534740000000    -0.0542397  
C555     C      0.708980000000     0.620990000000     0.591560000000     0.0608996  
C556     C      0.741460000000     0.611590000000     0.607420000000    -0.0319104  
C557     C      0.663880000000     0.601450000000     0.552610000000     0.0602414  
C558     C      0.622860000000     0.597040000000     0.542030000000    -0.083343   
C559     C      0.663570000000     0.599690000000     0.590270000000    -0.0559703  
C560     C      0.600830000000     0.586450000000     0.515380000000     0.172078   
C561     C      0.609360000000     0.549960000000     0.503810000000     0.00155751 
C562     C      0.709310000000     0.622600000000     0.553900000000    -0.0566254  
C563     C      0.079130000000     0.747130000000     0.774160000000    -0.0347362  
C564     C      0.960850000000     0.725830000000     0.699840000000    -0.0319939  
C565     C      0.930070000000     0.672090000000     0.681200000000    -0.00203951 
C566     C      0.940260000000     0.717780000000     0.671790000000    -0.00131708 
C567     C      0.016360000000     0.728160000000     0.702520000000    -0.0543606  
C568     C      0.015390000000     0.731120000000     0.777190000000    -0.0541904  
C569     C      0.993330000000     0.717880000000     0.720220000000     0.0609409  
C570     C      0.951530000000     0.682120000000     0.708470000000    -0.0320506  
C571     C      0.038450000000     0.741790000000     0.759440000000     0.060141   
C572     C      0.072800000000     0.783470000000     0.773450000000    -0.0836828  
C573     C      0.038760000000     0.740150000000     0.721800000000    -0.0560677  
C574     C      0.094200000000     0.798430000000     0.800090000000     0.173047   
C575     C      0.100570000000     0.759860000000     0.801100000000     0.000612869
C576     C      0.992990000000     0.719380000000     0.757860000000    -0.0567525  
H1       H      0.766670000000     0.052900000000     0.681790000000     0.0399508  
H2       H      0.769830000000     0.978280000000     0.741480000000     0.0347433  
H3       H      0.697030000000     0.968570000000     0.743700000000     0.0481662  
H4       H      0.826610000000     0.126180000000     0.761540000000     0.0346104  
H5       H      0.744270000000     0.937440000000     0.714590000000     0.0334104  
H6       H      0.748040000000     0.084710000000     0.738590000000     0.0336879  
H7       H      0.817420000000     0.086170000000     0.734940000000     0.0338664  
H8       H      0.769430000000     0.130910000000     0.720880000000     0.0373846  
H9       H      0.745940000000     0.006110000000     0.681320000000     0.0436923  
H10      H      0.752410000000     0.932450000000     0.758710000000     0.0409395  
H11      H      0.767720000000     0.052360000000     0.797280000000     0.0439125  
H12      H      0.751980000000     0.969170000000     0.782440000000     0.0398556  
H13      H      0.839090000000     0.132360000000     0.716950000000     0.0377619  
H14      H      0.690320000000     0.929400000000     0.717940000000    -0.00121567 
H15      H      0.764930000000     0.091570000000     0.696870000000     0.0365895  
H16      H      0.805100000000     0.092390000000     0.694750000000     0.0365445  
H17      H      0.746850000000     0.005600000000     0.796850000000     0.0410037  
H18      H      0.710770000000     0.964470000000     0.783900000000     0.0591671  
H19      H      0.778120000000     0.125100000000     0.764270000000     0.03447    
H20      H      0.661900000000     0.921220000000     0.758210000000     0.135346   
H21      H      0.932360000000     0.408430000000     0.593590000000     0.0401991  
H22      H      0.856150000000     0.323080000000     0.649050000000     0.0339591  
H23      H      0.925970000000     0.326380000000     0.635490000000     0.0494179  
H24      H      0.912250000000     0.418070000000     0.465580000000     0.0345175  
H25      H      0.866930000000     0.309370000000     0.704480000000     0.0325205  
H26      H      0.954360000000     0.390630000000     0.517880000000     0.033831   
H27      H      0.895300000000     0.407250000000     0.525960000000     0.034266   
H28      H      0.979000000000     0.429030000000     0.480160000000     0.0381665  
H29      H      0.918800000000     0.378510000000     0.644130000000     0.0433472  
H30      H      0.839890000000     0.283130000000     0.684430000000     0.0379523  
H31      H      0.893130000000     0.345490000000     0.520550000000     0.0436739  
H32      H      0.856710000000     0.297820000000     0.624070000000     0.0382788  
H33      H      0.919750000000     0.446900000000     0.489270000000     0.0399387  
H34      H      0.910240000000     0.311700000000     0.696280000000    -0.00276971 
H35      H      0.960450000000     0.419580000000     0.540420000000     0.0381189  
H36      H      0.925150000000     0.429410000000     0.545500000000     0.0381669  
H37      H      0.879910000000     0.315550000000     0.571010000000     0.0407251  
H38      H      0.898570000000     0.299830000000     0.615960000000     0.059301   
H39      H      0.949540000000     0.406690000000     0.460410000000     0.0334324  
H40      H      0.931630000000     0.294940000000     0.675470000000     0.133459   
H41      H      0.120660000000     0.703610000000     0.332740000000     0.0397907  
H42      H      0.106020000000     0.620100000000     0.404120000000     0.0339736  
H43      H      0.047910000000     0.638020000000     0.404270000000     0.049249   
H44      H      0.189470000000     0.779430000000     0.399260000000     0.0342248  
H45      H      0.069520000000     0.581650000000     0.384690000000     0.0344621  
H46      H      0.109770000000     0.741730000000     0.389400000000     0.0338562  
H47      H      0.175680000000     0.737110000000     0.376690000000     0.0333344  
H48      H      0.132050000000     0.786550000000     0.365870000000     0.0374871  
H49      H      0.093160000000     0.657310000000     0.338850000000     0.0437321  
H50      H      0.076620000000     0.576800000000     0.429560000000     0.0377913  
H51      H      0.130030000000     0.710380000000     0.447420000000     0.0436653  
H52      H      0.091600000000     0.620730000000     0.445800000000     0.0379242  
H53      H      0.198320000000     0.782000000000     0.353010000000     0.0371929  
H54      H      0.027840000000     0.594180000000     0.385560000000     0.00238772 
H55      H      0.122930000000     0.744750000000     0.345330000000     0.0366766  
H56      H      0.161120000000     0.742080000000     0.337950000000     0.0362385  
H57      H      0.102540000000     0.664170000000     0.453570000000     0.0405031  
H58      H      0.058500000000     0.631520000000     0.445860000000     0.0594208  
H59      H      0.143530000000     0.782580000000     0.408160000000     0.0341972  
H60      H      0.004220000000     0.599790000000     0.423040000000     0.136967   
H61      H      0.605250000000     0.645860000000     0.839470000000     0.0402809  
H62      H      0.609040000000     0.726310000000     0.795430000000     0.0339441  
H63      H      0.682050000000     0.735930000000     0.797330000000     0.0498925  
H64      H      0.579950000000     0.640730000000     0.971000000000     0.0335844  
H65      H      0.630190000000     0.744590000000     0.738640000000     0.0324672  
H66      H      0.639560000000     0.647560000000     0.910090000000     0.0340976  
H67      H      0.576290000000     0.657750000000     0.913630000000     0.0334302  
H68      H      0.615970000000     0.606260000000     0.943480000000     0.0378645  
H69      H      0.620690000000     0.677580000000     0.791110000000     0.0435822  
H70      H      0.624230000000     0.766840000000     0.762240000000     0.0382044  
H71      H      0.635430000000     0.706330000000     0.917750000000     0.0437514  
H72      H      0.632880000000     0.753050000000     0.820210000000     0.0390031  
H73      H      0.552300000000     0.617500000000     0.948060000000     0.0380758  
H74      H      0.674410000000     0.750570000000     0.739700000000    -0.00219806 
H75      H      0.611380000000     0.624520000000     0.887520000000     0.0372859  
H76      H      0.573640000000     0.630520000000     0.889830000000     0.0378323  
H77      H      0.650180000000     0.738040000000     0.869430000000     0.0409722  
H78      H      0.677060000000     0.758920000000     0.821320000000     0.0593215  
H79      H      0.620140000000     0.633460000000     0.968560000000     0.0339322  
H80      H      0.713310000000     0.772140000000     0.756500000000     0.134311   
H81      H      0.283980000000     0.020880000000     0.297340000000     0.0398375  
H82      H      0.340310000000     0.079660000000     0.194970000000     0.0340035  
H83      H      0.270160000000     0.075990000000     0.202030000000     0.0480773  
H84      H      0.263850000000     0.931530000000     0.257740000000     0.035845   
H85      H      0.350780000000     0.123320000000     0.199380000000     0.0331317  
H86      H      0.226910000000     0.977110000000     0.268550000000     0.033714   
H87      H      0.294630000000     0.975600000000     0.261190000000     0.033825   
H88      H      0.209300000000     0.938270000000     0.308940000000     0.0366141  
H89      H      0.302850000000     0.064290000000     0.272650000000     0.0431895  
H90      H      0.355720000000     0.117510000000     0.153920000000     0.0371436  
H91      H      0.264560000000     0.989850000000     0.190640000000     0.0441005  
H92      H      0.321550000000     0.074200000000     0.155380000000     0.0380495  
H93      H      0.276080000000     0.936720000000     0.302330000000     0.0362301  
H94      H      0.298860000000     0.120860000000     0.202400000000    -0.00184441 
H95      H      0.245070000000     0.980490000000     0.308120000000     0.0356547  
H96      H      0.283610000000     0.979820000000     0.303900000000     0.0356628  
H97      H      0.283600000000     0.033140000000     0.165920000000     0.0404952  
H98      H      0.281190000000     0.071290000000     0.159680000000     0.0585787  
H99      H      0.212890000000     0.932790000000     0.262770000000     0.035434   
H100     H      0.268350000000     0.112710000000     0.165930000000     0.135158   
H101     H      0.430300000000     0.345560000000     0.098310000000     0.0399194  
H102     H      0.499630000000     0.412710000000     0.019800000000     0.0337867  
H103     H      0.435370000000     0.420810000000     0.019010000000     0.0480428  
H104     H      0.410260000000     0.263720000000     0.031970000000     0.0348762  
H105     H      0.515030000000     0.456160000000     0.036790000000     0.0330034  
H106     H      0.375440000000     0.307530000000     0.056760000000     0.0339023  
H107     H      0.443240000000     0.306210000000     0.046530000000     0.033463   
H108     H      0.355090000000     0.264180000000     0.085580000000     0.0378385  
H109     H      0.454700000000     0.391740000000     0.087630000000     0.0432652  
H110     H      0.524610000000     0.455910000000     0.991600000000     0.0372729  
H111     H      0.420360000000     0.332410000000     0.984440000000     0.0438702  
H112     H      0.487110000000     0.416400000000     0.978010000000     0.0379094  
H113     H      0.423280000000     0.262870000000     0.074620000000     0.0374961  
H114     H      0.468130000000     0.462740000000     0.034220000000    -0.00160064 
H115     H      0.391240000000     0.305870000000     0.096480000000     0.0365775  
H116     H      0.430590000000     0.305010000000     0.090510000000     0.0366336  
H117     H      0.444950000000     0.378540000000     0.973720000000     0.0402945  
H118     H      0.449960000000     0.420220000000     0.977570000000     0.0582833  
H119     H      0.363430000000     0.264480000000     0.039470000000     0.03484    
H120     H      0.444100000000     0.465440000000     0.994040000000     0.135062   
H121     H      0.690000000000     0.807400000000     0.543970000000     0.0402839  
H122     H      0.651850000000     0.808670000000     0.424460000000     0.03394    
H123     H      0.730740000000     0.855800000000     0.421070000000     0.0495059  
H124     H      0.669770000000     0.863160000000     0.628160000000     0.03583    
H125     H      0.667450000000     0.797740000000     0.371220000000     0.0331189  
H126     H      0.731160000000     0.858820000000     0.581960000000     0.0342049  
H127     H      0.653850000000     0.834760000000     0.577580000000     0.0335512  
H128     H      0.728380000000     0.854040000000     0.649310000000     0.0393211  
H129     H      0.689860000000     0.800300000000     0.479210000000     0.043442   
H130     H      0.649120000000     0.812100000000     0.358560000000     0.0373241  
H131     H      0.693720000000     0.879450000000     0.523880000000     0.0437697  
H132     H      0.664760000000     0.841320000000     0.409900000000     0.038498   
H133     H      0.651300000000     0.831150000000     0.644600000000     0.0373587  
H134     H      0.717060000000     0.827450000000     0.369020000000    -0.00293995 
H135     H      0.708510000000     0.827500000000     0.597880000000     0.0368322  
H136     H      0.664050000000     0.813750000000     0.595500000000     0.0372632  
H137     H      0.692220000000     0.871730000000     0.459250000000     0.0404212  
H138     H      0.711730000000     0.869380000000     0.407670000000     0.058987   
H139     H      0.724500000000     0.879520000000     0.632110000000     0.0346711  
H140     H      0.749110000000     0.864490000000     0.357150000000     0.133603   
H141     H      0.679530000000     0.835570000000     0.057130000000     0.0402397  
H142     H      0.642400000000     0.836470000000     0.927930000000     0.0343684  
H143     H      0.720990000000     0.870090000000     0.937550000000     0.0488218  
H144     H      0.643240000000     0.876380000000     0.134670000000     0.0334141  
H145     H      0.654820000000     0.816840000000     0.882340000000     0.031634   
H146     H      0.712730000000     0.901800000000     0.086010000000     0.0339668  
H147     H      0.635380000000     0.846430000000     0.086220000000     0.0337868  
H148     H      0.713400000000     0.902590000000     0.152650000000     0.0383971  
H149     H      0.682100000000     0.825550000000     0.994180000000     0.0435262  
H150     H      0.645810000000     0.837650000000     0.861310000000     0.0396709  
H151     H      0.674620000000     0.901350000000     0.024440000000     0.0438231  
H152     H      0.662440000000     0.867980000000     0.909990000000     0.0400539  
H153     H      0.635030000000     0.845800000000     0.153280000000     0.037805   
H154     H      0.709310000000     0.840330000000     0.888160000000    -0.000269152
H155     H      0.703270000000     0.870790000000     0.104890000000     0.0381243  
H156     H      0.656970000000     0.837620000000     0.105090000000     0.0375747  
H157     H      0.678630000000     0.892160000000     0.961600000000     0.0411821  
H158     H      0.707900000000     0.887610000000     0.916430000000     0.0602721  
H159     H      0.692180000000     0.911800000000     0.133980000000     0.0343736  
H160     H      0.743850000000     0.875380000000     0.876380000000     0.136471   
H161     H      0.735540000000     0.762320000000     0.258180000000     0.0404789  
H162     H      0.739730000000     0.683200000000     0.202850000000     0.0342847  
H163     H      0.806380000000     0.754950000000     0.202280000000     0.049104   
H164     H      0.682300000000     0.782810000000     0.176110000000     0.0338468  
H165     H      0.772270000000     0.676900000000     0.228960000000     0.0334835  
H166     H      0.759050000000     0.811890000000     0.197430000000     0.0341387  
H167     H      0.685580000000     0.748280000000     0.203830000000     0.0339111  
H168     H      0.743220000000     0.841350000000     0.213120000000     0.0394024  
H169     H      0.756640000000     0.737040000000     0.261020000000     0.0436278  
H170     H      0.763520000000     0.661490000000     0.186100000000     0.0384796  
H171     H      0.734460000000     0.757930000000     0.142850000000     0.0437837  
H172     H      0.756860000000     0.694930000000     0.161490000000     0.0383596  
H173     H      0.668790000000     0.777070000000     0.220140000000     0.0377423  
H174     H      0.816750000000     0.724520000000     0.228180000000    -0.00264771 
H175     H      0.742940000000     0.804370000000     0.239900000000     0.0384052  
H176     H      0.699670000000     0.766810000000     0.243700000000     0.0376109  
H177     H      0.755460000000     0.732590000000     0.145660000000     0.040599   
H178     H      0.795740000000     0.737080000000     0.161130000000     0.0590846  
H179     H      0.730950000000     0.824730000000     0.171660000000     0.0335003  
H180     H      0.846890000000     0.752220000000     0.195020000000     0.133802   
H181     H      0.642370000000     0.924500000000     0.403800000000     0.039973   
H182     H      0.636400000000     0.006960000000     0.437480000000     0.0344833  
H183     H      0.568590000000     0.936320000000     0.434020000000     0.048672   
H184     H      0.675420000000     0.938220000000     0.277050000000     0.0351508  
H185     H      0.614540000000     0.002800000000     0.493230000000     0.0331488  
H186     H      0.604790000000     0.896010000000     0.328530000000     0.0335707  
H187     H      0.679330000000     0.957590000000     0.335130000000     0.0344982  
H188     H      0.619400000000     0.869370000000     0.297470000000     0.0378289  
H189     H      0.626420000000     0.942570000000     0.448540000000     0.0433328  
H190     H      0.614890000000     0.027650000000     0.466600000000     0.0389625  
H191     H      0.620950000000     0.958410000000     0.319270000000     0.0440608  
H192     H      0.610660000000     0.004490000000     0.411320000000     0.0384306  
H193     H      0.694900000000     0.931060000000     0.304840000000     0.0394441  
H194     H      0.569080000000     0.956140000000     0.490870000000    -0.00243118 
H195     H      0.627510000000     0.892170000000     0.354190000000     0.036988   
H196     H      0.671060000000     0.928210000000     0.358230000000     0.0371646  
H197     H      0.604600000000     0.976070000000     0.363880000000     0.0404979  
H198     H      0.571110000000     0.962930000000     0.408800000000     0.0588308  
H199     H      0.624900000000     0.897040000000     0.272440000000     0.0343831  
H200     H      0.531780000000     0.936390000000     0.468030000000     0.134011   
H201     H      0.048290000000     0.550600000000     0.739390000000     0.0396449  
H202     H      0.029910000000     0.514830000000     0.628040000000     0.0333526  
H203     H      0.993510000000     0.558470000000     0.620000000000     0.0494408  
H204     H      0.971200000000     0.503810000000     0.832240000000     0.0355364  
H205     H      0.044620000000     0.540100000000     0.573560000000     0.0344585  
H206     H      0.031450000000     0.571520000000     0.789810000000     0.0335991  
H207     H      0.982780000000     0.491860000000     0.776510000000     0.0336893  
H208     H      0.035810000000     0.564780000000     0.855330000000     0.0379019  
H209     H      0.051070000000     0.554190000000     0.674400000000     0.0424056  
H210     H      0.025550000000     0.506810000000     0.562740000000     0.0360993  
H211     H      0.968110000000     0.517560000000     0.732980000000     0.0428343  
H212     H      0.997710000000     0.499780000000     0.613810000000     0.0390673  
H213     H      0.985580000000     0.484860000000     0.841720000000     0.0401134  
H214     H      0.019680000000     0.568090000000     0.567080000000    -0.00065266 
H215     H      0.042740000000     0.549620000000     0.798970000000     0.0369188  
H216     H      0.014550000000     0.503680000000     0.791120000000     0.0400022  
H217     H      0.970630000000     0.518720000000     0.667950000000     0.0403209  
H218     H      0.976580000000     0.524860000000     0.609040000000     0.0586118  
H219     H      0.005050000000     0.557660000000     0.842200000000     0.0335533  
H220     H      0.984490000000     0.566210000000     0.554400000000     0.136989   
H221     H      0.971250000000     0.476580000000     0.156740000000     0.039436   
H222     H      0.006720000000     0.462970000000     0.290310000000     0.0340117  
H223     H      0.975280000000     0.510290000000     0.270570000000     0.0484141  
H224     H      0.028480000000     0.470900000000     0.074100000000     0.0334829  
H225     H      0.974150000000     0.452640000000     0.334480000000     0.0315552  
H226     H      0.040510000000     0.535330000000     0.133180000000     0.0329062  
H227     H      0.995180000000     0.455250000000     0.118210000000     0.0334468  
H228     H      0.045600000000     0.541910000000     0.067140000000     0.0363973  
H229     H      0.959600000000     0.471580000000     0.219790000000     0.0424449  
H230     H      0.004010000000     0.467710000000     0.356230000000     0.0369639  
H231     H      0.049000000000     0.509860000000     0.186460000000     0.0425056  
H232     H      0.023470000000     0.495870000000     0.305070000000     0.038894   
H233     H      0.999350000000     0.461000000000     0.051650000000     0.0379947  
H234     H      0.953610000000     0.483330000000     0.322160000000    -0.00137647 
H235     H      0.010860000000     0.522970000000     0.110520000000     0.0381327  
H236     H      0.984380000000     0.476100000000     0.101090000000     0.0371058  
H237     H      0.037570000000     0.507360000000     0.249350000000     0.0397929  
H238     H      0.005300000000     0.523630000000     0.292340000000     0.0599234  
H239     H      0.058290000000     0.522870000000     0.084300000000     0.0344698  
H240     H      0.958810000000     0.521510000000     0.327810000000     0.136056   
H241     H      0.943410000000     0.563360000000     0.079580000000     0.039924   
H242     H      0.928160000000     0.640210000000     0.089660000000     0.0342205  
H243     H      0.861720000000     0.568390000000     0.091480000000     0.0488552  
H244     H      0.982320000000     0.576710000000     0.955640000000     0.0341309  
H245     H      0.905710000000     0.640530000000     0.142290000000     0.0348133  
H246     H      0.914910000000     0.524530000000     0.008060000000     0.0336592  
H247     H      0.979200000000     0.598300000000     0.008160000000     0.0335863  
H248     H      0.941010000000     0.505530000000     0.988090000000     0.0374475  
H249     H      0.922420000000     0.580960000000     0.115960000000     0.0439469  
H250     H      0.904500000000     0.661540000000     0.109490000000     0.0383737  
H251     H      0.918580000000     0.583530000000     0.983320000000     0.0435902  
H252     H      0.902570000000     0.634440000000     0.060410000000     0.0379167  
H253     H      0.005580000000     0.580160000000     0.987540000000     0.0379041  
H254     H      0.858810000000     0.590770000000     0.143100000000     0.00160795 
H255     H      0.940460000000     0.531150000000     0.037910000000     0.0364313  
H256     H      0.978050000000     0.574150000000     0.037790000000     0.0366682  
H257     H      0.897640000000     0.601140000000     0.019620000000     0.040141   
H258     H      0.864390000000     0.592710000000     0.060950000000     0.0583106  
H259     H      0.938840000000     0.526350000000     0.955780000000     0.0346046  
H260     H      0.822840000000     0.569960000000     0.116560000000     0.135938   
H261     H      0.297320000000     0.138900000000     0.900860000000     0.0397402  
H262     H      0.359480000000     0.212470000000     0.797160000000     0.0345203  
H263     H      0.323130000000     0.132010000000     0.786570000000     0.0483901  
H264     H      0.324210000000     0.188860000000     0.005330000000     0.0366051  
H265     H      0.336640000000     0.203500000000     0.742000000000     0.0320667  
H266     H      0.362280000000     0.150160000000     0.948760000000     0.0327884  
H267     H      0.306140000000     0.171010000000     0.950860000000     0.0341123  
H268     H      0.356910000000     0.143390000000     0.016930000000     0.033892   
H269     H      0.298750000000     0.143810000000     0.835950000000     0.0430286  
H270     H      0.369130000000     0.217410000000     0.731410000000     0.0391331  
H271     H      0.377300000000     0.189150000000     0.906000000000     0.0428218  
H272     H      0.376710000000     0.197320000000     0.781740000000     0.0395714  
H273     H      0.300450000000     0.157880000000     0.018740000000     0.0379298  
H274     H      0.310580000000     0.146950000000     0.734620000000     0.00123331 
H275     H      0.331090000000     0.128470000000     0.963940000000     0.0369567  
H276     H      0.299540000000     0.139420000000     0.963100000000     0.0346416  
H277     H      0.379070000000     0.191730000000     0.841000000000     0.0403858  
H278     H      0.355920000000     0.151360000000     0.776480000000     0.0613255  
H279     H      0.373660000000     0.175430000000     0.000840000000     0.0379944  
H280     H      0.317900000000     0.116460000000     0.720190000000     0.137244   
H281     H      0.377020000000     0.182690000000     0.321330000000     0.0400483  
H282     H      0.410420000000     0.233470000000     0.452170000000     0.0344219  
H283     H      0.335780000000     0.175670000000     0.431900000000     0.0484044  
H284     H      0.408620000000     0.251230000000     0.230470000000     0.0332911  
H285     H      0.400850000000     0.203220000000     0.499650000000     0.0325403  
H286     H      0.342640000000     0.217400000000     0.291890000000     0.0336006  
H287     H      0.416440000000     0.229960000000     0.279910000000     0.0336336  
H288     H      0.336260000000     0.213360000000     0.226200000000     0.0384141  
H289     H      0.375390000000     0.174260000000     0.385580000000     0.0432862  
H290     H      0.401140000000     0.230670000000     0.518070000000     0.0388019  
H291     H      0.380850000000     0.254610000000     0.343090000000     0.0432799  
H292     H      0.384790000000     0.238410000000     0.464110000000     0.0381283  
H293     H      0.410490000000     0.224510000000     0.213270000000     0.0375711  
H294     H      0.347750000000     0.161850000000     0.485280000000    -0.000489888
H295     H      0.346830000000     0.192070000000     0.273880000000     0.0387481  
H296     H      0.390530000000     0.199430000000     0.266670000000     0.0369007  
H297     H      0.377030000000     0.245150000000     0.407170000000     0.0404772  
H298     H      0.342170000000     0.205490000000     0.451670000000     0.0598879  
H299     H      0.361630000000     0.244030000000     0.239290000000     0.0339729  
H300     H      0.309720000000     0.154820000000     0.490040000000     0.13686    
H301     H      0.469250000000     0.107900000000     0.520970000000     0.039996   
H302     H      0.397190000000     0.101380000000     0.592500000000     0.034835   
H303     H      0.461020000000     0.174010000000     0.607680000000     0.0477347  
H304     H      0.487870000000     0.044830000000     0.587590000000     0.035715   
H305     H      0.382120000000     0.128830000000     0.574880000000     0.0355965  
H306     H      0.522300000000     0.124270000000     0.562790000000     0.0341941  
H307     H      0.454880000000     0.053560000000     0.572330000000     0.0338086  
H308     H      0.543050000000     0.101990000000     0.533860000000     0.03957    
H309     H      0.444550000000     0.128910000000     0.531520000000     0.043777   
H310     H      0.370380000000     0.118340000000     0.619110000000     0.0405212  
H311     H      0.474820000000     0.100200000000     0.634960000000     0.0441176  
H312     H      0.406130000000     0.115110000000     0.636560000000     0.039709   
H313     H      0.475480000000     0.031030000000     0.544590000000     0.0374872  
H314     H      0.431740000000     0.186130000000     0.589700000000    -0.0011471  
H315     H      0.506800000000     0.106480000000     0.522990000000     0.0363205  
H316     H      0.467840000000     0.065500000000     0.528570000000     0.0367878  
H317     H      0.449480000000     0.120490000000     0.645490000000     0.040945   
H318     H      0.442620000000     0.155520000000     0.645190000000     0.058814   
H319     H      0.535060000000     0.094120000000     0.580100000000     0.0381754  
H320     H      0.449510000000     0.206920000000     0.638400000000     0.135666   
H321     H      0.130640000000     0.417670000000     0.929230000000     0.040024   
H322     H      0.120390000000     0.501010000000     0.919350000000     0.033847   
H323     H      0.056490000000     0.428200000000     0.905250000000     0.0484656  
H324     H      0.184810000000     0.422160000000     0.823950000000     0.0348377  
H325     H      0.090680000000     0.500770000000     0.960790000000     0.0331963  
H326     H      0.106400000000     0.382310000000     0.852510000000     0.03391    
H327     H      0.178830000000     0.444870000000     0.872050000000     0.0334835  
H328     H      0.124740000000     0.353710000000     0.843950000000     0.0375842  
H329     H      0.108250000000     0.438540000000     0.953030000000     0.0434103  
H330     H      0.092570000000     0.520480000000     0.923760000000     0.037158   
H331     H      0.127320000000     0.444060000000     0.823140000000     0.0437051  
H332     H      0.100030000000     0.494970000000     0.881500000000     0.037382   
H333     H      0.197080000000     0.415910000000     0.863810000000     0.0369632  
H334     H      0.043620000000     0.447560000000     0.950020000000    -0.00158446 
H335     H      0.124460000000     0.381600000000     0.890040000000     0.0366912  
H336     H      0.165990000000     0.417520000000     0.901330000000     0.0361852  
H337     H      0.104820000000     0.464760000000     0.846810000000     0.0401576  
H338     H      0.063790000000     0.453190000000     0.873170000000     0.0588065  
H339     H      0.132550000000     0.377280000000     0.809680000000     0.0350326  
H340     H      0.013980000000     0.428220000000     0.910980000000     0.135123   
H341     H      0.241980000000     0.280250000000     0.676830000000     0.0398348  
H342     H      0.318360000000     0.272520000000     0.649760000000     0.0344088  
H343     H      0.252290000000     0.200360000000     0.641990000000     0.0498331  
H344     H      0.253410000000     0.305540000000     0.808940000000     0.0352035  
H345     H      0.318710000000     0.251780000000     0.593810000000     0.0340324  
H346     H      0.203800000000     0.244350000000     0.743390000000     0.0344203  
H347     H      0.276360000000     0.308820000000     0.754620000000     0.0338135  
H348     H      0.184920000000     0.268210000000     0.772180000000     0.0396295  
H349     H      0.260200000000     0.263880000000     0.633050000000     0.043529   
H350     H      0.343460000000     0.255310000000     0.622730000000     0.0392636  
H351     H      0.262880000000     0.246730000000     0.762540000000     0.0443708  
H352     H      0.316610000000     0.246530000000     0.675890000000     0.0390555  
H353     H      0.258500000000     0.333160000000     0.784090000000     0.0381721  
H354     H      0.278520000000     0.207350000000     0.589040000000    -0.000142652
H355     H      0.211010000000     0.273450000000     0.720300000000     0.0367874  
H356     H      0.253680000000     0.311410000000     0.727020000000     0.0371783  
H357     H      0.281510000000     0.230800000000     0.718890000000     0.0409985  
H358     H      0.276760000000     0.203100000000     0.671370000000     0.0591118  
H359     H      0.205120000000     0.263000000000     0.801330000000     0.0372505  
H360     H      0.257730000000     0.167470000000     0.604830000000     0.135395   
H361     H      0.488430000000     0.471800000000     0.770680000000     0.0402596  
H362     H      0.484190000000     0.509960000000     0.646720000000     0.0349026  
H363     H      0.522940000000     0.468490000000     0.645300000000     0.0489004  
H364     H      0.524320000000     0.551390000000     0.845670000000     0.0341553  
H365     H      0.468460000000     0.479640000000     0.597400000000     0.0323703  
H366     H      0.551880000000     0.503840000000     0.800730000000     0.0336585  
H367     H      0.496330000000     0.525510000000     0.799330000000     0.0339671  
H368     H      0.552930000000     0.506050000000     0.868240000000     0.0368666  
H369     H      0.478570000000     0.460000000000     0.707340000000     0.0433873  
H370     H      0.484270000000     0.511570000000     0.580350000000     0.0390926  
H371     H      0.551780000000     0.543670000000     0.739290000000     0.0438626  
H372     H      0.515480000000     0.525370000000     0.628540000000     0.0420791  
H373     H      0.496910000000     0.526730000000     0.867080000000     0.0394712  
H374     H      0.493200000000     0.453660000000     0.595330000000    -0.000753727
H375     H      0.521990000000     0.483890000000     0.821720000000     0.0372833  
H376     H      0.490140000000     0.496240000000     0.820880000000     0.0371441  
H377     H      0.542650000000     0.531420000000     0.676120000000     0.0417217  
H378     H      0.538770000000     0.500740000000     0.628460000000     0.0598569  
H379     H      0.564940000000     0.536210000000     0.845990000000     0.0352665  
H380     H      0.527690000000     0.454050000000     0.581650000000     0.135385   
H381     H      0.516200000000     0.517660000000     0.185110000000     0.0401519  
H382     H      0.558080000000     0.519420000000     0.298780000000     0.0340316  
H383     H      0.529120000000     0.569340000000     0.310140000000     0.0477361  
H384     H      0.587600000000     0.572520000000     0.096250000000     0.0346268  
H385     H      0.531810000000     0.502240000000     0.349430000000     0.0357165  
H386     H      0.524730000000     0.569240000000     0.146520000000     0.0338038  
H387     H      0.578980000000     0.545650000000     0.148650000000     0.0333757  
H388     H      0.520660000000     0.563220000000     0.079900000000     0.0383022  
H389     H      0.510660000000     0.510990000000     0.249990000000     0.0438214  
H390     H      0.563010000000     0.519760000000     0.366450000000     0.0363781  
H391     H      0.583060000000     0.590050000000     0.202770000000     0.0435123  
H392     H      0.576520000000     0.550510000000     0.318570000000     0.0384315  
H393     H      0.575990000000     0.540110000000     0.082200000000     0.0370293  
H394     H      0.511170000000     0.543480000000     0.360970000000    -0.000335664
H395     H      0.515860000000     0.537320000000     0.132230000000     0.0370115  
H396     H      0.547680000000     0.523540000000     0.133580000000     0.0373664  
H397     H      0.578330000000     0.582670000000     0.267610000000     0.0404261  
H398     H      0.560650000000     0.579000000000     0.323350000000     0.0577888  
H399     H      0.550880000000     0.587850000000     0.094380000000     0.0337605  
H400     H      0.529560000000     0.582840000000     0.378930000000     0.135795   
H401     H      0.885130000000     0.202060000000     0.909780000000     0.0393757  
H402     H      0.888910000000     0.253870000000     0.042050000000     0.0336995  
H403     H      0.857820000000     0.174580000000     0.022370000000     0.0482321  
H404     H      0.886670000000     0.258290000000     0.819480000000     0.0344715  
H405     H      0.904360000000     0.236940000000     0.088140000000     0.0317267  
H406     H      0.823600000000     0.210700000000     0.884420000000     0.0327416  
H407     H      0.901240000000     0.240680000000     0.865360000000     0.0336341  
H408     H      0.815370000000     0.206620000000     0.818710000000     0.0359297  
H409     H      0.891050000000     0.198450000000     0.973410000000     0.0420885  
H410     H      0.883430000000     0.245890000000     0.107930000000     0.0369478  
H411     H      0.846970000000     0.243870000000     0.933680000000     0.0419978  
H412     H      0.856810000000     0.232080000000     0.054790000000     0.0385405  
H413     H      0.893320000000     0.235500000000     0.799170000000     0.0393466  
H414     H      0.884680000000     0.185590000000     0.075320000000    -0.00145434 
H415     H      0.834280000000     0.191160000000     0.863090000000     0.0384031  
H416     H      0.879130000000     0.208360000000     0.851820000000     0.0369108  
H417     H      0.850450000000     0.237790000000     0.997270000000     0.0392894  
H418     H      0.838740000000     0.186020000000     0.042500000000     0.0599007  
H419     H      0.834890000000     0.239110000000     0.833120000000     0.0350873  
H420     H      0.851730000000     0.147890000000     0.079560000000     0.135682   
H421     H      0.786640000000     0.153750000000     0.491210000000     0.0396955  
H422     H      0.800960000000     0.204660000000     0.363810000000     0.0342388  
H423     H      0.824950000000     0.150590000000     0.377710000000     0.0491521  
H424     H      0.819200000000     0.223750000000     0.580550000000     0.0346791  
H425     H      0.785480000000     0.175500000000     0.313340000000     0.0335231  
H426     H      0.852340000000     0.184060000000     0.524460000000     0.0339199  
H427     H      0.793270000000     0.200500000000     0.531210000000     0.0334843  
H428     H      0.852920000000     0.181360000000     0.591890000000     0.0368819  
H429     H      0.780910000000     0.146660000000     0.426400000000     0.0433911  
H430     H      0.808910000000     0.206390000000     0.298160000000     0.0383293  
H431     H      0.854590000000     0.225000000000     0.472660000000     0.0438015  
H432     H      0.832940000000     0.213960000000     0.353120000000     0.0385068  
H433     H      0.793250000000     0.195800000000     0.599070000000     0.0369614  
H434     H      0.800980000000     0.140220000000     0.322050000000     0.000252542
H435     H      0.822720000000     0.161340000000     0.543860000000     0.0366989  
H436     H      0.789050000000     0.170510000000     0.547460000000     0.0350685  
H437     H      0.849850000000     0.217030000000     0.408130000000     0.0404963  
H438     H      0.847110000000     0.182160000000     0.362040000000     0.0593053  
H439     H      0.863700000000     0.212700000000     0.574190000000     0.0383895  
H440     H      0.832100000000     0.133120000000     0.318040000000     0.135943   
H441     H      0.227060000000     0.368510000000     0.605210000000     0.039768   
H442     H      0.182400000000     0.332390000000     0.499040000000     0.0344317  
H443     H      0.212890000000     0.411370000000     0.479720000000     0.0479265  
H444     H      0.156200000000     0.356290000000     0.694300000000     0.0344726  
H445     H      0.204940000000     0.339960000000     0.444000000000     0.0344284  
H446     H      0.227580000000     0.409450000000     0.655180000000     0.0335838  
H447     H      0.160640000000     0.339210000000     0.637770000000     0.0335128  
H448     H      0.227060000000     0.398260000000     0.720300000000     0.0376216  
H449     H      0.230350000000     0.368230000000     0.540010000000     0.0431257  
H450     H      0.172140000000     0.323360000000     0.434010000000     0.0400685  
H451     H      0.166700000000     0.384750000000     0.595240000000     0.0434401  
H452     H      0.163080000000     0.344590000000     0.481910000000     0.0404023  
H453     H      0.158580000000     0.328250000000     0.702180000000     0.037725   
H454     H      0.225190000000     0.397880000000     0.427310000000    -0.00230191 
H455     H      0.227490000000     0.379920000000     0.662900000000     0.0361861  
H456     H      0.188340000000     0.338960000000     0.652830000000     0.0376764  
H457     H      0.168660000000     0.382460000000     0.530130000000     0.0406392  
H458     H      0.180120000000     0.389480000000     0.472240000000     0.0584716  
H459     H      0.201550000000     0.402740000000     0.707070000000     0.0337669  
H460     H      0.209950000000     0.421870000000     0.411310000000     0.134634   
H461     H      0.211490000000     0.363370000000     0.093390000000     0.0393162  
H462     H      0.228810000000     0.338480000000     0.988350000000     0.0328546  
H463     H      0.149910000000     0.293480000000     0.982020000000     0.0464957  
H464     H      0.167770000000     0.293560000000     0.200120000000     0.0359627  
H465     H      0.221260000000     0.355010000000     0.936000000000     0.0364651  
H466     H      0.172650000000     0.353370000000     0.134490000000     0.0336355  
H467     H      0.195530000000     0.298500000000     0.151020000000     0.0328296  
H468     H      0.176950000000     0.363130000000     0.200080000000     0.0381096  
H469     H      0.212520000000     0.360700000000     0.028590000000     0.0419885  
H470     H      0.230030000000     0.332740000000     0.920180000000     0.0335729  
H471     H      0.161720000000     0.281890000000     0.099130000000     0.0426345  
H472     H      0.213600000000     0.306190000000     0.972430000000     0.0398096  
H473     H      0.199190000000     0.307460000000     0.217080000000     0.0355358  
H474     H      0.153860000000     0.309510000000     0.925560000000     0.000312959
H475     H      0.203470000000     0.363270000000     0.152370000000     0.0364812  
H476     H      0.216610000000     0.331570000000     0.161380000000     0.0378783  
H477     H      0.165150000000     0.278800000000     0.034690000000     0.0395746  
H478     H      0.169920000000     0.280270000000     0.973940000000     0.0563853  
H479     H      0.152710000000     0.331520000000     0.189070000000     0.0338599  
H480     H      0.139490000000     0.269320000000     0.914560000000     0.135801   
H481     H      0.997950000000     0.267330000000     0.218040000000     0.0400204  
H482     H      0.073660000000     0.338520000000     0.289460000000     0.0342652  
H483     H      0.061430000000     0.263960000000     0.305400000000     0.0481696  
H484     H      0.918590000000     0.255970000000     0.278920000000     0.0359494  
H485     H      0.113110000000     0.343910000000     0.273620000000     0.03422    
H486     H      0.959940000000     0.216920000000     0.268120000000     0.0346342  
H487     H      0.960540000000     0.287190000000     0.261140000000     0.0337074  
H488     H      0.917370000000     0.194290000000     0.239850000000     0.0409068  
H489     H      0.043170000000     0.287590000000     0.228720000000     0.0438126  
H490     H      0.116910000000     0.356050000000     0.318160000000     0.0386786  
H491     H      0.985590000000     0.269320000000     0.331380000000     0.0441405  
H492     H      0.074220000000     0.327010000000     0.333750000000     0.0383074  
H493     H      0.917760000000     0.264810000000     0.233230000000     0.0370042  
H494     H      0.103740000000     0.285170000000     0.287670000000    -0.000224696
H495     H      0.958390000000     0.229250000000     0.224770000000     0.0369899  
H496     H      0.958760000000     0.270020000000     0.220750000000     0.0366215  
H497     H      0.030860000000     0.290250000000     0.341950000000     0.0406656  
H498     H      0.066730000000     0.284840000000     0.342720000000     0.0586425  
H499     H      0.918170000000     0.207120000000     0.283420000000     0.0382768  
H500     H      0.100570000000     0.263940000000     0.336140000000     0.135689   
H501     H      0.340780000000     0.447330000000     0.356720000000     0.038945   
H502     H      0.396810000000     0.463490000000     0.438300000000     0.0326998  
H503     H      0.424450000000     0.425490000000     0.373180000000     0.0463654  
H504     H      0.276190000000     0.349580000000     0.313050000000     0.0350951  
H505     H      0.440440000000     0.493380000000     0.430260000000     0.0370583  
H506     H      0.317090000000     0.428390000000     0.302620000000     0.0331303  
H507     H      0.301460000000     0.364150000000     0.367510000000     0.0324226  
H508     H      0.270750000000     0.410080000000     0.292520000000     0.0379356  
H509     H      0.382270000000     0.467500000000     0.382210000000     0.0412922  
H510     H      0.435540000000     0.481360000000     0.475140000000     0.034007   
H511     H      0.341860000000     0.376600000000     0.347090000000     0.0417183  
H512     H      0.402340000000     0.439190000000     0.455990000000     0.0410512  
H513     H      0.257050000000     0.343810000000     0.352220000000     0.037308   
H514     H      0.462770000000     0.459010000000     0.390240000000    -0.00191026 
H515     H      0.298950000000     0.422280000000     0.343240000000     0.0369248  
H516     H      0.289020000000     0.384420000000     0.379410000000     0.0393183  
H517     H      0.381540000000     0.395620000000     0.377510000000     0.039448   
H518     H      0.413760000000     0.415170000000     0.418300000000     0.0576289  
H519     H      0.283870000000     0.392440000000     0.272600000000     0.0332943  
H520     H      0.463370000000     0.425100000000     0.407720000000     0.135242   
H521     H      0.579140000000     0.025960000000     0.802380000000     0.0397519  
H522     H      0.536670000000     0.983130000000     0.675920000000     0.0343044  
H523     H      0.587210000000     0.062840000000     0.679450000000     0.0484874  
H524     H      0.502780000000     0.985470000000     0.878390000000     0.034795   
H525     H      0.567170000000     0.994080000000     0.628160000000     0.0321245  
H526     H      0.545940000000     0.060000000000     0.830110000000     0.0334852  
H527     H      0.529130000000     0.983000000000     0.833260000000     0.0338388  
H528     H      0.543770000000     0.060400000000     0.897690000000     0.035821   
H529     H      0.589980000000     0.025710000000     0.739230000000     0.0430565  
H530     H      0.536940000000     0.983830000000     0.609220000000     0.0383648  
H531     H      0.509870000000     0.021560000000     0.770500000000     0.0436497  
H532     H      0.526600000000     0.004210000000     0.657750000000     0.0390155  
H533     H      0.527580000000     0.983670000000     0.900640000000     0.0386295  
H534     H      0.599370000000     0.044610000000     0.630030000000    -0.00210264 
H535     H      0.566910000000     0.051710000000     0.852220000000     0.0367243  
H536     H      0.557220000000     0.007510000000     0.854340000000     0.0359766  
H537     H      0.521560000000     0.023230000000     0.707440000000     0.0404776  
H538     H      0.556560000000     0.051630000000     0.660480000000     0.0588527  
H539     H      0.514450000000     0.040410000000     0.875820000000     0.0357969  
H540     H      0.606060000000     0.082650000000     0.617690000000     0.134046   
H541     H      0.491440000000     0.985510000000     0.299740000000     0.0397398  
H542     H      0.484440000000     0.039100000000     0.174200000000     0.0338345  
H543     H      0.517760000000     0.992820000000     0.186610000000     0.0482105  
H544     H      0.492090000000     0.033860000000     0.400310000000     0.0333361  
H545     H      0.468850000000     0.009350000000     0.125080000000     0.0337379  
H546     H      0.552690000000     0.056830000000     0.327180000000     0.0329909  
H547     H      0.476570000000     0.004100000000     0.351020000000     0.0336896  
H548     H      0.563950000000     0.058230000000     0.391440000000     0.0370757  
H549     H      0.484270000000     0.978990000000     0.235720000000     0.042543   
H550     H      0.490730000000     0.040070000000     0.107570000000     0.0378346  
H551     H      0.526750000000     0.067020000000     0.284030000000     0.0420609  
H552     H      0.516550000000     0.051050000000     0.160710000000     0.0376486  
H553     H      0.487730000000     0.003840000000     0.415690000000     0.0391274  
H554     H      0.490550000000     0.976840000000     0.134440000000     0.000962625
H555     H      0.544090000000     0.025680000000     0.344350000000     0.0395894  
H556     H      0.500160000000     0.995080000000     0.358230000000     0.0385428  
H557     H      0.521970000000     0.060570000000     0.219650000000     0.0393723  
H558     H      0.535500000000     0.024410000000     0.168120000000     0.0598911  
H559     H      0.542720000000     0.069990000000     0.383380000000     0.0350796  
H560     H      0.524770000000     0.975500000000     0.126820000000     0.135951   
H561     H      0.675860000000     0.100680000000     0.028820000000     0.0398562  
H562     H      0.733240000000     0.167570000000     0.124620000000     0.033928   
H563     H      0.732210000000     0.097180000000     0.129130000000     0.0489872  
H564     H      0.588960000000     0.083220000000     0.066710000000     0.037756   
H565     H      0.776440000000     0.179830000000     0.121390000000     0.0349428  
H566     H      0.633530000000     0.044800000000     0.064770000000     0.0347753  
H567     H      0.631960000000     0.113880000000     0.059670000000     0.0335045  
H568     H      0.594740000000     0.024020000000     0.024840000000     0.0381405  
H569     H      0.718720000000     0.123330000000     0.052720000000     0.04392    
H570     H      0.770750000000     0.187000000000     0.165720000000     0.0370052  
H571     H      0.646610000000     0.089140000000     0.136280000000     0.0447976  
H572     H      0.728830000000     0.151320000000     0.166770000000     0.037689   
H573     H      0.593050000000     0.091670000000     0.020290000000     0.0357788  
H574     H      0.775860000000     0.127390000000     0.126270000000     0.00383063 
H575     H      0.636160000000     0.060250000000     0.022430000000     0.0354658  
H576     H      0.635180000000     0.099250000000     0.019540000000     0.0352038  
H577     H      0.689340000000     0.111850000000     0.160170000000     0.0405701  
H578     H      0.727600000000     0.110930000000     0.169120000000     0.05888    
H579     H      0.590140000000     0.030140000000     0.070250000000     0.04251    
H580     H      0.769390000000     0.099320000000     0.167270000000     0.137463   
H581     H      0.182180000000     0.837220000000     0.537900000000     0.0401243  
H582     H      0.216280000000     0.830320000000     0.656060000000     0.0339238  
H583     H      0.194050000000     0.885900000000     0.664430000000     0.0488193  
H584     H      0.255980000000     0.898110000000     0.454390000000     0.0345396  
H585     H      0.187390000000     0.815090000000     0.704690000000     0.0357605  
H586     H      0.191850000000     0.889940000000     0.505640000000     0.0340735  
H587     H      0.247320000000     0.867970000000     0.503040000000     0.0332947  
H588     H      0.189460000000     0.888670000000     0.438610000000     0.037967   
H589     H      0.174290000000     0.827730000000     0.601980000000     0.0437692  
H590     H      0.217990000000     0.828740000000     0.723800000000     0.0362266  
H591     H      0.250240000000     0.906850000000     0.562920000000     0.043456   
H592     H      0.236330000000     0.860620000000     0.677060000000     0.0383567  
H593     H      0.246050000000     0.866970000000     0.436140000000     0.0369906  
H594     H      0.172100000000     0.858820000000     0.713240000000     0.00284847 
H595     H      0.183780000000     0.859210000000     0.487100000000     0.037193   
H596     H      0.216530000000     0.846230000000     0.485840000000     0.0376108  
H597     H      0.243340000000     0.896390000000     0.626840000000     0.0404553  
H598     H      0.224110000000     0.892350000000     0.680740000000     0.0581676  
H599     H      0.219410000000     0.912050000000     0.455740000000     0.0335909  
H600     H      0.190890000000     0.897920000000     0.732170000000     0.137119   
H601     H      0.145430000000     0.790580000000     0.128610000000     0.0395246  
H602     H      0.144640000000     0.833940000000     0.004080000000     0.034448   
H603     H      0.179360000000     0.788580000000     0.005570000000     0.048362   
H604     H      0.178280000000     0.866420000000     0.209220000000     0.0347397  
H605     H      0.128070000000     0.803980000000     0.954530000000     0.0320299  
H606     H      0.210860000000     0.824720000000     0.157390000000     0.0334981  
H607     H      0.151080000000     0.840110000000     0.162850000000     0.033713   
H608     H      0.213180000000     0.825530000000     0.225160000000     0.0356755  
H609     H      0.136030000000     0.780560000000     0.064780000000     0.042915   
H610     H      0.146330000000     0.835770000000     0.937560000000     0.0386206  
H611     H      0.208730000000     0.863460000000     0.100660000000     0.0438446  
H612     H      0.176110000000     0.847510000000     0.987040000000     0.0392216  
H613     H      0.153170000000     0.839400000000     0.230910000000     0.0369963  
H614     H      0.150530000000     0.774860000000     0.954670000000    -0.00219672 
H615     H      0.181990000000     0.802710000000     0.179260000000     0.036175   
H616     H      0.147930000000     0.811360000000     0.182270000000     0.0351324  
H617     H      0.200270000000     0.852810000000     0.036980000000     0.0406338  
H618     H      0.196810000000     0.820760000000     0.988700000000     0.0587993  
H619     H      0.223240000000     0.855750000000     0.204150000000     0.0362741  
H620     H      0.184240000000     0.773340000000     0.942550000000     0.134197   
H621     H      0.337740000000     0.923760000000     0.859290000000     0.0403159  
H622     H      0.397960000000     0.988940000000     0.951810000000     0.0341948  
H623     H      0.398070000000     0.919120000000     0.954520000000     0.0479033  
H624     H      0.249670000000     0.896420000000     0.906850000000     0.0370805  
H625     H      0.440890000000     0.002200000000     0.943230000000     0.0345862  
H626     H      0.300130000000     0.866290000000     0.892670000000     0.0343594  
H627     H      0.291350000000     0.931270000000     0.899540000000     0.0343593  
H628     H      0.260690000000     0.843990000000     0.855520000000     0.0394512  
H629     H      0.381370000000     0.946900000000     0.879960000000     0.0437374  
H630     H      0.437760000000     0.009290000000     0.988790000000     0.0364322  
H631     H      0.312550000000     0.907990000000     0.968890000000     0.0442889  
H632     H      0.396150000000     0.973400000000     0.993790000000     0.0378976  
H633     H      0.251710000000     0.908260000000     0.862250000000     0.0393165  
H634     H      0.441330000000     0.948520000000     0.948000000000    -0.00128102 
H635     H      0.300140000000     0.882980000000     0.852640000000     0.0363435  
H636     H      0.295250000000     0.920120000000     0.856600000000     0.0372856  
H637     H      0.356090000000     0.931680000000     0.989600000000     0.0405059  
H638     H      0.395290000000     0.933470000000     0.995150000000     0.0582903  
H639     H      0.256250000000     0.848480000000     0.901780000000     0.0398616  
H640     H      0.436750000000     0.922460000000     0.991140000000     0.135705   
H641     H      0.853260000000     0.666730000000     0.950120000000     0.0404537  
H642     H      0.818080000000     0.631310000000     0.830960000000     0.0338749  
H643     H      0.847120000000     0.711080000000     0.826710000000     0.0481426  
H644     H      0.780830000000     0.650690000000     0.035090000000     0.034803   
H645     H      0.847430000000     0.644900000000     0.782830000000     0.0344477  
H646     H      0.844170000000     0.710440000000     0.986450000000     0.0344206  
H647     H      0.789210000000     0.631830000000     0.983070000000     0.0341634  
H648     H      0.846750000000     0.708570000000     0.053060000000     0.0405876  
H649     H      0.861870000000     0.667940000000     0.885860000000     0.0432717  
H650     H      0.816730000000     0.629570000000     0.763630000000     0.0362569  
H651     H      0.788130000000     0.673240000000     0.927080000000     0.0437189  
H652     H      0.800280000000     0.644340000000     0.810900000000     0.038533   
H653     H      0.790960000000     0.628910000000     0.049710000000     0.0403506  
H654     H      0.867420000000     0.704830000000     0.776940000000    -0.00192887 
H655     H      0.852810000000     0.687480000000     0.001470000000     0.0382469  
H656     H      0.820110000000     0.640690000000     0.999100000000     0.0396605  
H657     H      0.795770000000     0.672670000000     0.862750000000     0.0405762  
H658     H      0.816300000000     0.689460000000     0.809850000000     0.0582342  
H659     H      0.816440000000     0.701330000000     0.037240000000     0.0349088  
H660     H      0.852070000000     0.728510000000     0.759890000000     0.135048   
H661     H      0.831190000000     0.663230000000     0.442530000000     0.0398993  
H662     H      0.886680000000     0.693930000000     0.322090000000     0.0344326  
H663     H      0.827040000000     0.617900000000     0.328690000000     0.0474601  
H664     H      0.899810000000     0.694530000000     0.532920000000     0.0337263  
H665     H      0.863780000000     0.692680000000     0.271140000000     0.0348874  
H666     H      0.851490000000     0.622530000000     0.485620000000     0.0336609  
H667     H      0.883710000000     0.702890000000     0.478650000000     0.0338917  
H668     H      0.846670000000     0.624280000000     0.551810000000     0.0371114  
H669     H      0.825700000000     0.661590000000     0.377380000000     0.0437416  
H670     H      0.887970000000     0.687570000000     0.254170000000     0.0375192  
H671     H      0.896460000000     0.655290000000     0.429490000000     0.0437289  
H672     H      0.890470000000     0.667700000000     0.307390000000     0.0368817  
H673     H      0.878520000000     0.705390000000     0.544860000000     0.0381537  
H674     H      0.815680000000     0.631970000000     0.276630000000     0.000921982
H675     H      0.832960000000     0.636880000000     0.497840000000     0.0372306  
H676     H      0.851820000000     0.683990000000     0.493900000000     0.036803   
H677     H      0.889950000000     0.651900000000     0.364430000000     0.0403897  
H678     H      0.857150000000     0.625160000000     0.311660000000     0.0585556  
H679     H      0.878710000000     0.640740000000     0.537150000000     0.0350995  
H680     H      0.813340000000     0.595720000000     0.264470000000     0.13671    
H681     H      0.726750000000     0.630700000000     0.539270000000     0.0399116  
H682     H      0.644130000000     0.556030000000     0.525670000000     0.034507   
H683     H      0.631950000000     0.618220000000     0.542350000000     0.0489934  
H684     H      0.753680000000     0.612810000000     0.661980000000     0.0353196  
H685     H      0.618120000000     0.555440000000     0.476840000000     0.034304   
H686     H      0.742720000000     0.668360000000     0.608570000000     0.0344791  
H687     H      0.726420000000     0.591470000000     0.611650000000     0.0336056  
H688     H      0.787440000000     0.683280000000     0.625010000000     0.0397799  
H689     H      0.687470000000     0.614090000000     0.505770000000     0.0437037  
H690     H      0.600350000000     0.528860000000     0.506050000000     0.0415106  
H691     H      0.685390000000     0.607770000000     0.638360000000     0.0440319  
H692     H      0.621850000000     0.553660000000     0.558920000000     0.0405196  
H693     H      0.770500000000     0.605580000000     0.629130000000     0.0375269  
H694     H      0.607690000000     0.597110000000     0.489640000000     0.000735081
H695     H      0.758530000000     0.658070000000     0.577930000000     0.0364443  
H696     H      0.749030000000     0.613210000000     0.579850000000     0.0370123  
H697     H      0.646090000000     0.590140000000     0.604810000000     0.0408576  
H698     H      0.615410000000     0.589930000000     0.569370000000     0.0586369  
H699     H      0.765320000000     0.665250000000     0.659410000000     0.0371922  
H700     H      0.586750000000     0.608410000000     0.524490000000     0.136241   
H701     H      0.975500000000     0.712140000000     0.772190000000     0.0401343  
H702     H      0.069820000000     0.726090000000     0.777920000000     0.0342731  
H703     H      0.058730000000     0.789740000000     0.776830000000     0.0486646  
H704     H      0.936970000000     0.669030000000     0.655200000000     0.0347384  
H705     H      0.093290000000     0.751980000000     0.828170000000     0.0331706  
H706     H      0.975870000000     0.745620000000     0.693530000000     0.0338741  
H707     H      0.959660000000     0.669310000000     0.708250000000     0.0340938  
H708     H      0.932110000000     0.730480000000     0.674250000000     0.0385957  
H709     H      0.014840000000     0.732580000000     0.806050000000     0.0434348  
H710     H      0.114830000000     0.754440000000     0.794130000000     0.0384934  
H711     H      0.016940000000     0.727560000000     0.673560000000     0.0439356  
H712     H      0.087000000000     0.751690000000     0.746570000000     0.038059   
H713     H      0.914800000000     0.653260000000     0.690580000000     0.0376655  
H714     H      0.085960000000     0.796760000000     0.827250000000    -0.0017696  
H715     H      0.953170000000     0.725950000000     0.726810000000     0.0377826  
H716     H      0.943840000000     0.681430000000     0.735680000000     0.0366303  
H717     H      0.056250000000     0.748690000000     0.707260000000     0.0405669  
H718     H      0.080160000000     0.788190000000     0.745540000000     0.0592797  
H719     H      0.948820000000     0.720820000000     0.644720000000     0.0342644  
H720     H      0.097500000000     0.832150000000     0.798680000000     0.135012   
N1       N      0.713970000000     0.922410000000     0.751020000000    -0.194156   
N2       N      0.733930000000     0.975000000000     0.737330000000    -0.107721   
N3       N      0.781940000000     0.083590000000     0.741270000000    -0.113361   
N4       N      0.806560000000     0.136200000000     0.725310000000    -0.181405   
N5       N      0.874460000000     0.281990000000     0.681150000000    -0.196469   
N6       N      0.892450000000     0.327880000000     0.641610000000    -0.108653   
N7       N      0.922750000000     0.395790000000     0.522510000000    -0.113769   
N8       N      0.950370000000     0.439830000000     0.480240000000    -0.181625   
N9       N      0.043770000000     0.580360000000     0.423190000000    -0.194203   
N10      N      0.077840000000     0.630370000000     0.399090000000    -0.107741   
N11      N      0.142220000000     0.737850000000     0.387710000000    -0.113473   
N12      N      0.168200000000     0.789170000000     0.365010000000    -0.181478   
N13      N      0.662840000000     0.775320000000     0.761270000000    -0.196566   
N14      N      0.644380000000     0.728080000000     0.797300000000    -0.108646   
N15      N      0.609840000000     0.655870000000     0.911630000000    -0.113743   
N16      N      0.583080000000     0.609900000000     0.950320000000    -0.181735   
N17      N      0.324250000000     0.122910000000     0.162990000000    -0.194912   
N18      N      0.305430000000     0.077800000000     0.204240000000    -0.10777    
N19      N      0.260520000000     0.976290000000     0.259000000000    -0.112948   
N20      N      0.238700000000     0.930140000000     0.297330000000    -0.180848   
N21      N      0.496030000000     0.466070000000     0.998440000000    -0.195084   
N22      N      0.466910000000     0.415820000000     0.024950000000    -0.107844   
N23      N      0.409780000000     0.308250000000     0.046950000000    -0.113388   
N24      N      0.386350000000     0.258430000000     0.075650000000    -0.181365   
N25      N      0.689160000000     0.835360000000     0.351200000000    -0.196458   
N26      N      0.691570000000     0.830770000000     0.426510000000    -0.10843    
N27      N      0.693230000000     0.849710000000     0.576500000000    -0.113212   
N28      N      0.691080000000     0.848420000000     0.651910000000    -0.180848   
N29      N      0.685360000000     0.850240000000     0.860940000000    -0.194796   
N30      N      0.681280000000     0.850850000000     0.936450000000    -0.108042   
N31      N      0.673760000000     0.875080000000     0.082020000000    -0.113739   
N32      N      0.673940000000     0.875090000000     0.157550000000    -0.18174    
N33      N      0.799780000000     0.695720000000     0.188950000000    -0.195764   
N34      N      0.771960000000     0.720070000000     0.206480000000    -0.108313   
N35      N      0.722980000000     0.778580000000     0.197080000000    -0.113616   
N36      N      0.704380000000     0.811560000000     0.213550000000    -0.181553   
N37      N      0.579190000000     0.992780000000     0.471190000000    -0.195761   
N38      N      0.604190000000     0.969940000000     0.436770000000    -0.108341   
N39      N      0.640970000000     0.929060000000     0.330810000000    -0.113482   
N40      N      0.657850000000     0.899750000000     0.293950000000    -0.181235   
N41      N      0.009070000000     0.530370000000     0.552470000000    -0.195816   
N42      N      0.014180000000     0.539250000000     0.627290000000    -0.107689   
N43      N      0.004940000000     0.532400000000     0.780060000000    -0.112998   
N44      N      0.007600000000     0.524880000000     0.854080000000    -0.181355   
N45      N      0.985860000000     0.490330000000     0.351100000000    -0.197542   
N46      N      0.989290000000     0.484680000000     0.276620000000    -0.108098   
N47      N      0.019160000000     0.494730000000     0.129720000000    -0.113333   
N48      N      0.024710000000     0.501700000000     0.055070000000    -0.182227   
N49      N      0.869960000000     0.626400000000     0.118890000000    -0.194609   
N50      N      0.896700000000     0.602780000000     0.093040000000    -0.107859   
N51      N      0.945180000000     0.562760000000     0.006190000000    -0.113571   
N52      N      0.974310000000     0.542030000000     0.980530000000    -0.181494   
N53      N      0.346110000000     0.177240000000     0.720040000000    -0.195287   
N54      N      0.338240000000     0.171870000000     0.794790000000    -0.107297   
N55      N      0.337350000000     0.165090000000     0.947630000000    -0.1115     
N56      N      0.337790000000     0.164480000000     0.021870000000    -0.180107   
N57      N      0.364890000000     0.196790000000     0.513290000000    -0.195852   
N58      N      0.374370000000     0.202610000000     0.438940000000    -0.107761   
N59      N      0.380480000000     0.225600000000     0.289670000000    -0.113658   
N60      N      0.373590000000     0.220370000000     0.214920000000    -0.182166   
N61      N      0.399080000000     0.157480000000     0.614540000000    -0.193637   
N62      N      0.429970000000     0.138010000000     0.593950000000    -0.107191   
N63      N      0.488180000000     0.089780000000     0.572440000000    -0.113284   
N64      N      0.512250000000     0.064310000000     0.544500000000    -0.180647   
N65      N      0.058530000000     0.484370000000     0.927740000000    -0.195217   
N66      N      0.089730000000     0.463100000000     0.916380000000    -0.107767   
N67      N      0.141980000000     0.415770000000     0.858670000000    -0.113204   
N68      N      0.162820000000     0.384590000000     0.843710000000    -0.181047   
N69      N      0.311860000000     0.216910000000     0.617010000000    -0.195628   
N70      N      0.283580000000     0.237820000000     0.646110000000    -0.108571   
N71      N      0.241330000000     0.274530000000     0.749800000000    -0.11348    
N72      N      0.220670000000     0.301280000000     0.784300000000    -0.180888   
N73      N      0.503500000000     0.490000000000     0.574160000000    -0.195639   
N74      N      0.502320000000     0.487880000000     0.650060000000    -0.10829    
N75      N      0.526190000000     0.517490000000     0.796330000000    -0.11315    
N76      N      0.530030000000     0.523530000000     0.871320000000    -0.180445   
N77      N      0.539980000000     0.536350000000     0.376340000000    -0.193931   
N78      N      0.539840000000     0.541370000000     0.301690000000    -0.10703    
N79      N      0.553570000000     0.559780000000     0.151090000000    -0.113507   
N80      N      0.550740000000     0.554800000000     0.075750000000    -0.181447   
N81      N      0.869640000000     0.205360000000     0.102930000000    -0.19704    
N82      N      0.875630000000     0.214970000000     0.028290000000    -0.107802   
N83      N      0.863270000000     0.228220000000     0.878820000000    -0.112864   
N84      N      0.854250000000     0.224220000000     0.804280000000    -0.181455   
N85      N      0.819520000000     0.177210000000     0.299540000000    -0.19566    
N86      N      0.810750000000     0.176120000000     0.374300000000    -0.108185   
N87      N      0.824970000000     0.195720000000     0.524680000000    -0.112892   
N88      N      0.828480000000     0.196630000000     0.599820000000    -0.180567   
N89      N      0.192460000000     0.362690000000     0.417930000000    -0.194613   
N90      N      0.201220000000     0.372690000000     0.491830000000    -0.107606   
N91      N      0.192990000000     0.375950000000     0.643420000000    -0.113497   
N92      N      0.190820000000     0.364200000000     0.716810000000    -0.18213    
N93      N      0.191480000000     0.321240000000     0.913730000000    -0.194373   
N94      N      0.188820000000     0.319800000000     0.987260000000    -0.105324   
N95      N      0.181430000000     0.323560000000     0.139480000000    -0.11292    
N96      N      0.184050000000     0.332570000000     0.213680000000    -0.182097   
N97      N      0.116800000000     0.320760000000     0.312930000000    -0.194015   
N98      N      0.066890000000     0.300440000000     0.291280000000    -0.10717    
N99      N      0.961580000000     0.252930000000     0.269420000000    -0.113237   
N100     N      0.912500000000     0.227200000000     0.241490000000    -0.180483   
N101     N      0.454550000000     0.468480000000     0.440650000000    -0.19412    
N102     N      0.410130000000     0.446570000000     0.399900000000    -0.105812   
N103     N      0.312770000000     0.396640000000     0.333270000000    -0.112496   
N104     N      0.261080000000     0.374120000000     0.317400000000    -0.1817     
N105     N      0.563720000000     0.024290000000     0.605800000000    -0.196348   
N106     N      0.563100000000     0.022680000000     0.681730000000    -0.108497   
N107     N      0.534850000000     0.020600000000     0.827890000000    -0.113099   
N108     N      0.529170000000     0.020070000000     0.902890000000    -0.180673   
N109     N      0.502920000000     0.012230000000     0.108640000000    -0.195408   
N110     N      0.498330000000     0.013700000000     0.184130000000    -0.107373   
N111     N      0.513490000000     0.032230000000     0.335560000000    -0.1127     
N112     N      0.525990000000     0.033980000000     0.408900000000    -0.180673   
N113     N      0.777470000000     0.155500000000     0.161290000000    -0.193939   
N114     N      0.732720000000     0.132210000000     0.121070000000    -0.107341   
N115     N      0.632600000000     0.079440000000     0.068260000000    -0.112504   
N116     N      0.586550000000     0.054210000000     0.032480000000    -0.179887   
N117     N      0.199000000000     0.849840000000     0.732120000000    -0.193116   
N118     N      0.201730000000     0.855640000000     0.656910000000    -0.107047   
N119     N      0.220980000000     0.880750000000     0.508260000000    -0.113494   
N120     N      0.219480000000     0.880240000000     0.432550000000    -0.181066   
N121     N      0.162690000000     0.811420000000     0.932770000000    -0.196116   
N122     N      0.160380000000     0.809730000000     0.008760000000    -0.10844    
N123     N      0.182990000000     0.835650000000     0.156570000000    -0.112888   
N124     N      0.188720000000     0.840910000000     0.231460000000    -0.180648   
N125     N      0.444960000000     0.978410000000     0.981040000000    -0.194494   
N126     N      0.397950000000     0.953890000000     0.947080000000    -0.107378   
N127     N      0.296100000000     0.898800000000     0.901790000000    -0.112899   
N128     N      0.249700000000     0.871910000000     0.866500000000    -0.179557   
N129     N      0.838130000000     0.670190000000     0.756840000000    -0.194974   
N130     N      0.835910000000     0.671830000000     0.832000000000    -0.107502   
N131     N      0.815450000000     0.671630000000     0.980990000000    -0.11366    
N132     N      0.817570000000     0.668980000000     0.056130000000    -0.18131    
N133     N      0.851110000000     0.654970000000     0.253250000000    -0.194802   
N134     N      0.854170000000     0.657370000000     0.327800000000    -0.107041   
N135     N      0.869770000000     0.662810000000     0.478790000000    -0.113489   
N136     N      0.865510000000     0.665380000000     0.553640000000    -0.181847   
N137     N      0.591150000000     0.558990000000     0.507450000000    -0.193752   
N138     N      0.641200000000     0.589440000000     0.531520000000    -0.107934   
N139     N      0.731490000000     0.628960000000     0.612250000000    -0.113332   
N140     N      0.781050000000     0.645240000000     0.634190000000    -0.180734   
N141     N      0.111370000000     0.787890000000     0.802320000000    -0.195178   
N142     N      0.061130000000     0.755950000000     0.780100000000    -0.108026   
N143     N      0.970850000000     0.708280000000     0.698970000000    -0.113446   
N144     N      0.921280000000     0.690540000000     0.675670000000    -0.181355   
O1       O      0.839700000000     0.648570000000     0.707240000000    -0.560589   
O2       O      0.852840000000     0.646140000000     0.608540000000    -0.559128   
O3       O      0.880450000000     0.658430000000     0.668710000000    -0.555046   
O4       O      0.812430000000     0.636510000000     0.647110000000    -0.55712    
O5       O      0.821860000000     0.677060000000     0.641510000000    -0.555239   
O6       O      0.889820000000     0.698910000000     0.662220000000    -0.559912   
O7       O      0.862440000000     0.686730000000     0.602450000000    -0.5589     
O8       O      0.849690000000     0.689260000000     0.701380000000    -0.542553   
O9       O      0.187130000000     0.856610000000     0.787640000000    -0.538757   
O10      O      0.168270000000     0.837170000000     0.884350000000    -0.559747   
O11      O      0.211700000000     0.867630000000     0.850820000000    -0.552112   
O12      O      0.144110000000     0.826300000000     0.821410000000    -0.541384   
O13      O      0.150320000000     0.793290000000     0.814560000000    -0.557993   
O14      O      0.217890000000     0.834560000000     0.843690000000    -0.553871   
O15      O      0.175010000000     0.804490000000     0.877590000000    -0.537516   
O16      O      0.193670000000     0.823810000000     0.780440000000    -0.554325   
O17      O      0.523130000000     0.000210000000     0.957320000000    -0.559747   
O18      O      0.509840000000     0.996110000000     0.056950000000    -0.541761   
O19      O      0.481640000000     0.979630000000     0.996920000000    -0.543409   
O20      O      0.551220000000     0.016750000000     0.017340000000    -0.553552   
O21      O      0.550140000000     0.053080000000     0.016020000000    -0.556387   
O22      O      0.481070000000     0.016110000000     0.992760000000    -0.559172   
O23      O      0.507510000000     0.031690000000     0.053950000000    -0.554594   
O24      O      0.523710000000     0.037360000000     0.954670000000    -0.55335    
O25      O      0.185670000000     0.335080000000     0.371460000000    -0.558567   
O26      O      0.186120000000     0.321970000000     0.272090000000    -0.557925   
O27      O      0.220810000000     0.341560000000     0.324140000000    -0.562154   
O28      O      0.150870000000     0.315320000000     0.319820000000    -0.547247   
O29      O      0.157170000000     0.354580000000     0.311110000000    -0.552952   
O30      O      0.227370000000     0.379820000000     0.307300000000    -0.553291   
O31      O      0.189330000000     0.359620000000     0.259860000000    -0.56104    
O32      O      0.194970000000     0.374890000000     0.358960000000    -0.541926   
O33      O      0.831010000000     0.202080000000     0.248770000000    -0.55788    
O34      O      0.857940000000     0.217120000000     0.154600000000    -0.559275   
O35      O      0.811580000000     0.192130000000     0.182310000000    -0.557618   
O36      O      0.877340000000     0.227080000000     0.220860000000    -0.556084   
O37      O      0.878830000000     0.190990000000     0.219030000000    -0.55491    
O38      O      0.812420000000     0.155710000000     0.183280000000    -0.539735   
O39      O      0.857610000000     0.180100000000     0.153260000000    -0.542686   
O40      O      0.833460000000     0.166560000000     0.248820000000    -0.538826   
O41      O      0.526300000000     0.539980000000     0.432240000000    -0.54205    
O42      O      0.508610000000     0.517340000000     0.528180000000    -0.557881   
O43      O      0.551190000000     0.551210000000     0.495110000000    -0.533839   
O44      O      0.484140000000     0.506250000000     0.465830000000    -0.55794    
O45      O      0.494180000000     0.476340000000     0.453870000000    -0.543524   
O46      O      0.560210000000     0.520220000000     0.486840000000    -0.55894    
O47      O      0.517470000000     0.486360000000     0.518380000000    -0.536026   
O48      O      0.537100000000     0.510300000000     0.423160000000    -0.559123   
O49      O      0.172220000000     0.316150000000     0.859390000000    -0.550841   
O50      O      0.172730000000     0.335930000000     0.763060000000    -0.563124   
O51      O      0.186580000000     0.305760000000     0.796750000000    -0.556056   
O52      O      0.158520000000     0.346340000000     0.825510000000    -0.559096   
O53      O      0.196820000000     0.379270000000     0.834920000000    -0.556764   
O54      O      0.224860000000     0.339390000000     0.802860000000    -0.557917   
O55      O      0.210480000000     0.370010000000     0.771170000000    -0.556931   
O56      O      0.211170000000     0.348490000000     0.866630000000    -0.558014   
O57      O      0.376780000000     0.210790000000     0.570920000000    -0.561913   
O58      O      0.366970000000     0.201740000000     0.671300000000    -0.55866    
O59      O      0.392970000000     0.191750000000     0.622110000000    -0.544461   
O60      O      0.350800000000     0.220740000000     0.619860000000    -0.561663   
O61      O      0.317570000000     0.182060000000     0.613240000000    -0.53434    
O62      O      0.360030000000     0.153380000000     0.611260000000    -0.556613   
O63      O      0.335090000000     0.162350000000     0.662520000000    -0.542008   
O64      O      0.342600000000     0.173010000000     0.561970000000    -0.542948   
O65      O      0.029180000000     0.538230000000     0.907070000000    -0.557686   
O66      O      0.037030000000     0.527220000000     0.005190000000    -0.558485   
O67      O      0.053790000000     0.518660000000     0.942970000000    -0.557425   
O68      O      0.012810000000     0.546520000000     0.968960000000    -0.559094   
O69      O      0.979100000000     0.507690000000     0.966370000000    -0.557099   
O70      O      0.020010000000     0.479990000000     0.939510000000    -0.54468    
O71      O      0.003830000000     0.488070000000     0.001690000000    -0.559892   
O72      O      0.995610000000     0.499320000000     0.903910000000    -0.556401   
O73      O      0.697160000000     0.881460000000     0.208490000000    -0.559386   
O74      O      0.704860000000     0.861720000000     0.301980000000    -0.538565   
O75      O      0.712130000000     0.850300000000     0.235340000000    -0.557098   
O76      O      0.689670000000     0.893120000000     0.275190000000    -0.55495    
O77      O      0.650340000000     0.860930000000     0.272930000000    -0.559622   
O78      O      0.672900000000     0.817830000000     0.234730000000    -0.55756    
O79      O      0.665360000000     0.830000000000     0.301050000000    -0.559352   
O80      O      0.657930000000     0.849010000000     0.206750000000    -0.557113   
O81      O      0.809210000000     0.645710000000     0.107970000000    -0.553927   
O82      O      0.825420000000     0.638880000000     0.204040000000    -0.544934   
O83      O      0.800150000000     0.659220000000     0.172460000000    -0.558851   
O84      O      0.834350000000     0.625500000000     0.139560000000    -0.538131   
O85      O      0.869430000000     0.662960000000     0.134530000000    -0.559857   
O86      O      0.835550000000     0.696490000000     0.169320000000    -0.542168   
O87      O      0.860840000000     0.676210000000     0.199540000000    -0.562343   
O88      O      0.843970000000     0.683680000000     0.104460000000    -0.558536   
O89      O      0.537560000000     0.007200000000     0.557310000000    -0.558027   
O90      O      0.517880000000     0.013100000000     0.462880000000    -0.553437   
O91      O      0.543970000000     0.992740000000     0.491970000000    -0.54018    
O92      O      0.511610000000     0.027430000000     0.528120000000    -0.558462   
O93      O      0.546540000000     0.064690000000     0.519740000000    -0.55326    
O94      O      0.579630000000     0.029680000000     0.487490000000    -0.559246   
O95      O      0.554100000000     0.049250000000     0.455380000000    -0.555897   
O96      O      0.571980000000     0.045150000000     0.551580000000    -0.539078   
O97      O      0.363830000000     0.175810000000     0.070780000000    -0.55457    
O98      O      0.382550000000     0.205760000000     0.163330000000    -0.556687   
O99      O      0.358100000000     0.157790000000     0.138050000000    -0.560175   
O100     O      0.388340000000     0.223680000000     0.096100000000    -0.558151   
O101     O      0.352540000000     0.224080000000     0.101620000000    -0.557702   
O102     O      0.321800000000     0.157330000000     0.141350000000    -0.541583   
O103     O      0.345990000000     0.204650000000     0.168080000000    -0.56204    
O104     O      0.328310000000     0.176990000000     0.074680000000    -0.557704   
O105     O      0.518100000000     0.533270000000     0.924610000000    -0.553946   
O106     O      0.528510000000     0.549050000000     0.023830000000    -0.55723    
O107     O      0.544360000000     0.575900000000     0.962990000000    -0.559718   
O108     O      0.501960000000     0.506010000000     0.985700000000    -0.54245    
O109     O      0.534780000000     0.500000000000     0.984880000000    -0.559871   
O110     O      0.577270000000     0.569980000000     0.962180000000    -0.556073   
O111     O      0.561170000000     0.542740000000     0.023160000000    -0.557509   
O112     O      0.550820000000     0.527030000000     0.923950000000    -0.5566     
O113     O      0.178340000000     0.850490000000     0.286130000000    -0.556104   
O114     O      0.194320000000     0.871630000000     0.383080000000    -0.556208   
O115     O      0.203540000000     0.895330000000     0.319350000000    -0.559529   
O116     O      0.168860000000     0.826340000000     0.349940000000    -0.558069   
O117     O      0.203840000000     0.824310000000     0.344570000000    -0.556969   
O118     O      0.238760000000     0.893660000000     0.314840000000    -0.553961   
O119     O      0.229030000000     0.869010000000     0.378520000000    -0.554917   
O120     O      0.213430000000     0.848590000000     0.281230000000    -0.554561   
O121     O      0.006930000000     0.495830000000     0.403850000000    -0.562456   
O122     O      0.018110000000     0.515210000000     0.501640000000    -0.561648   
O123     O      0.989930000000     0.471650000000     0.466120000000    -0.560748   
O124     O      0.035470000000     0.540010000000     0.438980000000    -0.557426   
O125     O      0.004100000000     0.548270000000     0.437010000000    -0.537501   
O126     O      0.958690000000     0.480180000000     0.465100000000    -0.555897   
O127     O      0.987410000000     0.524480000000     0.499750000000    -0.536018   
O128     O      0.975890000000     0.504660000000     0.402000000000    -0.542527   
O129     O      0.828530000000     0.214930000000     0.755410000000    -0.555489   
O130     O      0.816440000000     0.202620000000     0.655550000000    -0.555571   
O131     O      0.805730000000     0.173140000000     0.714490000000    -0.557664   
O132     O      0.839190000000     0.244410000000     0.696450000000    -0.559023   
O133     O      0.874900000000     0.244340000000     0.688450000000    -0.538138   
O134     O      0.842090000000     0.173710000000     0.710830000000    -0.55788    
O135     O      0.851690000000     0.201080000000     0.650190000000    -0.555498   
O136     O      0.865570000000     0.217280000000     0.748770000000    -0.557151   
O137     O      0.709070000000     0.851690000000     0.707040000000    -0.555263   
O138     O      0.706660000000     0.853600000000     0.808680000000    -0.538419   
O139     O      0.695550000000     0.816830000000     0.759760000000    -0.538077   
O140     O      0.720140000000     0.888100000000     0.755870000000    -0.558079   
O141     O      0.681080000000     0.881010000000     0.753120000000    -0.540606   
O142     O      0.656520000000     0.809590000000     0.756750000000    -0.561437   
O143     O      0.667420000000     0.845960000000     0.805600000000    -0.55819    
O144     O      0.669880000000     0.844310000000     0.704210000000    -0.558673   
O145     O      0.675790000000     0.919720000000     0.769170000000    -0.274012   
O146     O      0.913600000000     0.283350000000     0.670380000000    -0.273058   
O147     O      0.014540000000     0.594180000000     0.436500000000    -0.27078    
O148     O      0.704370000000     0.781150000000     0.764300000000    -0.27242    
O149     O      0.282520000000     0.113570000000     0.152160000000    -0.274572   
O150     O      0.458590000000     0.465740000000     0.982000000000    -0.275194   
O151     O      0.733540000000     0.864600000000     0.350680000000    -0.273121   
O152     O      0.729560000000     0.876580000000     0.866340000000    -0.27383    
O153     O      0.835880000000     0.737080000000     0.180160000000    -0.273015   
O154     O      0.540230000000     0.954540000000     0.460400000000    -0.273786   
O155     O      0.982910000000     0.549280000000     0.549880000000    -0.270591   
O156     O      0.972930000000     0.520890000000     0.339620000000    -0.275389   
O157     O      0.831800000000     0.587710000000     0.107230000000    -0.273777   
O158     O      0.333250000000     0.133170000000     0.716100000000    -0.274857   
O159     O      0.321380000000     0.171570000000     0.501070000000    -0.274188   
O160     O      0.433370000000     0.191510000000     0.644490000000    -0.27363    
O161     O      0.024310000000     0.446430000000     0.904010000000    -0.275026   
O162     O      0.274620000000     0.175640000000     0.615900000000    -0.270561   
O163     O      0.528940000000     0.470370000000     0.573950000000    -0.273971   
O164     O      0.540810000000     0.575730000000     0.382980000000    -0.274409   
O165     O      0.848120000000     0.160580000000     0.090790000000    -0.275439   
O166     O      0.837560000000     0.150640000000     0.309290000000    -0.274057   
O167     O      0.196570000000     0.403700000000     0.409950000000    -0.27348    
O168     O      0.157900000000     0.278920000000     0.911040000000    -0.277172   
O169     O      0.105920000000     0.281890000000     0.342500000000    -0.275397   
O170     O      0.459000000000     0.432560000000     0.428260000000    -0.273216   
O171     O      0.589280000000     0.069830000000     0.608610000000    -0.274917   
O172     O      0.527210000000     0.991910000000     0.117200000000    -0.276243   
O173     O      0.769800000000     0.114370000000     0.178610000000    -0.273031   
O174     O      0.201470000000     0.890200000000     0.737480000000    -0.273273   
O175     O      0.186500000000     0.790040000000     0.934590000000    -0.275562   
O176     O      0.438040000000     0.938220000000     0.001380000000    -0.274592   
O177     O      0.840090000000     0.710450000000     0.753750000000    -0.27428    
O178     O      0.829680000000     0.609900000000     0.256110000000    -0.276826   
O179     O      0.581980000000     0.590440000000     0.529760000000    -0.272532   
O180     O      0.107030000000     0.824150000000     0.789280000000    -0.273778   
V1       V      0.845990000000     0.645800000000     0.658150000000     1.38961    
V2       V      0.856280000000     0.689580000000     0.651620000000     1.39916    
V3       V      0.177600000000     0.848260000000     0.836310000000     1.3991     
V4       V      0.184450000000     0.812720000000     0.828710000000     1.38731    
V5       V      0.516480000000     0.996730000000     0.007220000000     1.40413    
V6       V      0.515580000000     0.036030000000     0.004200000000     1.38188    
V7       V      0.185610000000     0.326920000000     0.322360000000     1.40358    
V8       V      0.192520000000     0.368840000000     0.308840000000     1.38978    
V9       V      0.844410000000     0.211050000000     0.201670000000     1.38557    
V10      V      0.845660000000     0.171920000000     0.201080000000     1.40832    
V11      V      0.517240000000     0.529960000000     0.480740000000     1.39318    
V12      V      0.527580000000     0.497060000000     0.470250000000     1.40248    
V13      V      0.171000000000     0.324710000000     0.810890000000     1.40536    
V14      V      0.212370000000     0.360620000000     0.819230000000     1.38647    
V15      V      0.373200000000     0.207790000000     0.621440000000     1.40148    
V16      V      0.337490000000     0.166160000000     0.611900000000     1.40204    
V17      V      0.034590000000     0.534180000000     0.956160000000     1.38992    
V18      V      0.998270000000     0.492250000000     0.952770000000     1.39977    
V19      V      0.702510000000     0.872960000000     0.255360000000     1.39872    
V20      V      0.660070000000     0.838150000000     0.253810000000     1.38987    
V21      V      0.815870000000     0.640820000000     0.156190000000     1.39301    
V22      V      0.853870000000     0.681280000000     0.151750000000     1.40598    
V23      V      0.526360000000     0.008610000000     0.510290000000     1.39435    
V24      V      0.564480000000     0.048670000000     0.503230000000     1.39279    
V25      V      0.374640000000     0.190730000000     0.116920000000     1.38681    
V26      V      0.335700000000     0.190710000000     0.121630000000     1.40136    
V27      V      0.521890000000     0.541230000000     0.974310000000     1.39561    
V28      V      0.557320000000     0.534690000000     0.973510000000     1.38858    
V29      V      0.184860000000     0.860980000000     0.334860000000     1.3925     
V30      V      0.222680000000     0.858850000000     0.329620000000     1.38296    
V31      V      0.013890000000     0.505390000000     0.452710000000     1.39446    
V32      V      0.980230000000     0.514660000000     0.450920000000     1.40587    
V33      V      0.821010000000     0.208740000000     0.705710000000     1.38527    
V34      V      0.859970000000     0.209050000000     0.699310000000     1.39882    
V35      V      0.709390000000     0.852800000000     0.757970000000     1.4005     
V36      V      0.667180000000     0.844950000000     0.754800000000     1.39531    


