data_structure

_audit_creation_method RASPA-1.0
_audit_creation_date 2023-5-25
_audit_author_name 'Poobodin Mano'

_cell_length_a    37.7425
_cell_length_b    37.7394
_cell_length_c    37.9267
_cell_angle_alpha 90
_cell_angle_beta  90
_cell_angle_gamma 90
_cell_volume      54022

_symmetry_cell_setting          triclinic
_symmetry_space_group_name_Hall 'P 1'
_symmetry_space_group_name_H-M  'P 1'
_symmetry_Int_Tables_number     1

_symmetry_equiv_pos_as_xyz 'x,y,z'

loop_
_atom_site_label
_atom_site_type_symbol
_atom_site_fract_x
_atom_site_fract_y
_atom_site_fract_z
_atom_site_charge
C1       C      0.022490000000     0.950280000000     0.505890000000     0.476276   
C2       C      0.994400000000     0.080680000000     0.491040000000     0.476227   
C3       C      0.074050000000     0.028590000000     0.492740000000     0.476184   
C4       C      0.942640000000     0.003450000000     0.503910000000     0.474855   
C5       C      0.997360000000     0.510200000000     0.556170000000     0.474458   
C6       C      0.993960000000     0.521120000000     0.423100000000     0.47319    
C7       C      0.001550000000     0.581870000000     0.494740000000     0.47302    
C8       C      0.989720000000     0.448710000000     0.483380000000     0.472881   
C9       C      0.574230000000     0.989490000000     0.523240000000     0.474394   
C10      C      0.443080000000     0.006290000000     0.500040000000     0.472114   
C11      C      0.521590000000     0.002480000000     0.445660000000     0.475121   
C12      C      0.496030000000     0.993250000000     0.576600000000     0.472283   
C13      C      0.505430000000     0.991590000000     0.077550000000     0.471778   
C14      C      0.495650000000     0.983450000000     0.944510000000     0.473985   
C15      C      0.504910000000     0.055010000000     0.007100000000     0.471028   
C16      C      0.496180000000     0.921180000000     0.015110000000     0.474371   
C17      C      0.983550000000     0.496020000000     0.056030000000     0.476497   
C18      C      0.004410000000     0.488530000000     0.924260000000     0.474055   
C19      C      0.060130000000     0.485880000000     0.000590000000     0.474854   
C20      C      0.927810000000     0.498600000000     0.981200000000     0.474575   
C21      C      0.509730000000     0.424260000000     0.979170000000     0.473951   
C22      C      0.475890000000     0.554230000000     0.981570000000     0.471832   
C23      C      0.427930000000     0.472310000000     0.984030000000     0.472098   
C24      C      0.557660000000     0.506180000000     0.976430000000     0.47271    
C25      C      0.832290000000     0.478760000000     0.962700000000    -0.0329468  
C26      C      0.648640000000     0.521710000000     0.007670000000    -0.0320517  
C27      C      0.612090000000     0.511940000000     0.940680000000    -0.000934585
C28      C      0.610280000000     0.534090000000     0.003650000000    -0.0018868  
C29      C      0.726820000000     0.538110000000     0.953260000000    -0.0544478  
C30      C      0.757360000000     0.490170000000     0.000380000000    -0.0536057  
C31      C      0.704870000000     0.518030000000     0.975410000000     0.0606917  
C32      C      0.650190000000     0.499700000000     0.947410000000    -0.0324688  
C33      C      0.779360000000     0.511210000000     0.979200000000     0.0607413  
C34      C      0.837640000000     0.540750000000     0.977640000000    -0.0425029  
C35      C      0.763660000000     0.534330000000     0.954530000000    -0.0560742  
C36      C      0.875620000000     0.536310000000     0.991630000000     0.0410049  
C37      C      0.869430000000     0.470200000000     0.976520000000     0.000662517
C38      C      0.720510000000     0.492870000000     0.998050000000    -0.056254   
C39      C      0.155990000000     0.503120000000     0.990780000000    -0.0329253  
C40      C      0.340760000000     0.457600000000     0.025270000000    -0.0319537  
C41      C      0.369910000000     0.465850000000     0.954570000000    -0.00127796 
C42      C      0.378560000000     0.445200000000     0.017500000000    -0.00231913 
C43      C      0.257460000000     0.440700000000     0.978460000000    -0.054459   
C44      C      0.231370000000     0.489340000000     0.027470000000    -0.0541103  
C45      C      0.281370000000     0.460430000000     0.998820000000     0.0603181  
C46      C      0.332770000000     0.478240000000     0.965060000000    -0.032258   
C47      C      0.207460000000     0.469050000000     0.007660000000     0.0605795  
C48      C      0.148010000000     0.442310000000     0.009870000000    -0.0428348  
C49      C      0.220920000000     0.445380000000     0.982200000000    -0.0563053  
C50      C      0.109970000000     0.449480000000     0.022640000000     0.0419983  
C51      C      0.119120000000     0.513790000000     0.003740000000     0.000552183
C52      C      0.267910000000     0.485730000000     0.022680000000    -0.0562439  
C53      C      0.512980000000     0.827270000000     0.992730000000    -0.033068   
C54      C      0.463990000000     0.641750000000     0.021190000000    -0.0317485  
C55      C      0.469800000000     0.611660000000     0.950630000000    -0.00151524 
C56      C      0.449360000000     0.604770000000     0.013670000000    -0.00212068 
C57      C      0.449410000000     0.726200000000     0.977990000000    -0.0543506  
C58      C      0.503160000000     0.748080000000     0.023690000000    -0.054002   
C59      C      0.470250000000     0.700660000000     0.995010000000     0.0604244  
C60      C      0.484180000000     0.648360000000     0.960520000000    -0.0323169  
C61      C      0.481350000000     0.773590000000     0.007850000000     0.0607271  
C62      C      0.454600000000     0.831940000000     0.019050000000    -0.042776   
C63      C      0.455240000000     0.762340000000     0.983720000000    -0.0561916  
C64      C      0.462840000000     0.868450000000     0.035140000000     0.0418512  
C65      C      0.524730000000     0.862770000000     0.008410000000     0.000700714
C66      C      0.498250000000     0.712020000000     0.016860000000    -0.0562598  
C67      C      0.500810000000     0.329830000000     0.957470000000    -0.0327406  
C68      C      0.544810000000     0.145530000000     0.001990000000    -0.0318376  
C69      C      0.474820000000     0.112650000000     0.001670000000    -0.000924769
C70      C      0.540280000000     0.108670000000     0.018150000000    -0.00225915 
C71      C      0.494450000000     0.227060000000     0.017760000000    -0.0541902  
C72      C      0.540800000000     0.253320000000     0.966660000000    -0.0542433  
C73      C      0.514910000000     0.203260000000     0.998000000000     0.0601813  
C74      C      0.482970000000     0.148900000000     0.985460000000    -0.032376   
C75      C      0.521410000000     0.277130000000     0.987440000000     0.0606059  
C76      C      0.528190000000     0.335340000000     0.015250000000    -0.0428356  
C77      C      0.497020000000     0.263570000000     0.012140000000    -0.0564779  
C78      C      0.539870000000     0.373680000000     0.007970000000     0.0421519  
C79      C      0.512230000000     0.367350000000     0.947010000000    -3.33273e-06
C80      C      0.537170000000     0.216720000000     0.971300000000    -0.0561953  
C81      C      0.516580000000     0.993190000000     0.849170000000    -0.0329531  
C82      C      0.479470000000     0.952680000000     0.664510000000    -0.0320198  
C83      C      0.492770000000     0.022580000000     0.634520000000    -0.00090181 
C84      C      0.469440000000     0.959940000000     0.626050000000    -0.00225779 
C85      C      0.460090000000     0.003110000000     0.744880000000    -0.0544527  
C86      C      0.505110000000     0.952960000000     0.775210000000    -0.0540436  
C87      C      0.480080000000     0.980870000000     0.722960000000     0.0605022  
C88      C      0.502800000000     0.012050000000     0.672130000000    -0.0322801  
C89      C      0.484630000000     0.974770000000     0.797110000000     0.0605998  
C90      C      0.455070000000     0.975890000000     0.854910000000    -0.0428076  
C91      C      0.462770000000     0.000700000000     0.781550000000    -0.0563609  
C92      C      0.460030000000     0.964040000000     0.893410000000     0.0417245  
C93      C      0.525290000000     0.981280000000     0.886730000000     0.000595264
C94      C      0.503510000000     0.956350000000     0.738540000000    -0.0564468  
C95      C      0.512560000000     0.033660000000     0.354260000000    -0.0328409  
C96      C      0.545680000000     0.990330000000     0.167560000000    -0.0315592  
C97      C      0.476600000000     0.001720000000     0.134900000000    -0.000879323
C98      C      0.538700000000     0.975160000000     0.130840000000    -0.00237553 
C99      C      0.492970000000     0.982060000000     0.248470000000    -0.0540866  
C100     C      0.548560000000     0.022710000000     0.275420000000    -0.0541076  
C101     C      0.516700000000     0.998330000000     0.225090000000     0.0604016  
C102     C      0.487200000000     0.016370000000     0.171060000000    -0.0322276  
C103     C      0.525950000000     0.004850000000     0.298730000000     0.0607278  
C104     C      0.530320000000     0.971680000000     0.353870000000    -0.0427672  
C105     C      0.496980000000     0.985830000000     0.284890000000    -0.0564503  
C106     C      0.544560000000     0.973780000000     0.391740000000     0.0422965  
C107     C      0.526870000000     0.038940000000     0.391760000000     0.000310225
C108     C      0.543680000000     0.020140000000     0.238950000000    -0.0560416  
C109     C      0.034640000000     0.503090000000     0.647010000000    -0.032339   
C110     C      0.991230000000     0.462130000000     0.831670000000    -0.0325185  
C111     C      0.031310000000     0.514970000000     0.871160000000    -0.00180761 
C112     C      0.004020000000     0.453660000000     0.869110000000    -0.000898101
C113     C      0.029340000000     0.468880000000     0.754110000000    -0.0546609  
C114     C      0.982590000000     0.519370000000     0.727020000000    -0.0541501  
C115     C      0.009930000000     0.490240000000     0.777350000000     0.0606144  
C116     C      0.017860000000     0.520800000000     0.833670000000    -0.0317548  
C117     C      0.003420000000     0.499380000000     0.703780000000     0.0606722  
C118     C      0.972290000000     0.488030000000     0.648780000000    -0.0434971  
C119     C      0.025690000000     0.472810000000     0.717640000000    -0.0563321  
C120     C      0.965100000000     0.505210000000     0.612650000000     0.0435061  
C121     C      0.031330000000     0.520200000000     0.610660000000    -0.000545293
C122     C      0.985160000000     0.514410000000     0.763420000000    -0.0564416  
C123     C      0.977860000000     0.537350000000     0.143950000000    -0.0320904  
C124     C      0.014310000000     0.502170000000     0.329720000000    -0.0323821  
C125     C      0.963660000000     0.544070000000     0.370170000000    -0.0022511  
C126     C      0.024870000000     0.516300000000     0.366040000000    -0.000817934
C127     C      0.008940000000     0.535590000000     0.252230000000    -0.0540902  
C128     C      0.954030000000     0.493440000000     0.226240000000    -0.0542419  
C129     C      0.985000000000     0.520090000000     0.275900000000     0.0604713  
C130     C      0.956210000000     0.529470000000     0.333330000000    -0.0317068  
C131     C      0.977140000000     0.510070000000     0.202540000000     0.0611622  
C132     C      0.990120000000     0.474510000000     0.150880000000    -0.0435938  
C133     C      0.005630000000     0.530090000000     0.215970000000    -0.0565019  
C134     C      0.976430000000     0.466010000000     0.113540000000     0.0433823  
C135     C      0.963800000000     0.532070000000     0.106610000000    -0.000378393
C136     C      0.958230000000     0.497720000000     0.262590000000    -0.0559004  
C137     C      0.165490000000     0.015960000000     0.462310000000    -0.0329324  
C138     C      0.353780000000     0.050030000000     0.496590000000    -0.0318854  
C139     C      0.384980000000     0.979750000000     0.487530000000    -0.000619851
C140     C      0.390980000000     0.043350000000     0.510920000000    -0.00158063 
C141     C      0.272320000000     0.000560000000     0.512460000000    -0.0541206  
C142     C      0.244600000000     0.052080000000     0.467360000000    -0.0543182  
C143     C      0.295470000000     0.021720000000     0.492700000000     0.0605429  
C144     C      0.348420000000     0.990560000000     0.473760000000    -0.032257   
C145     C      0.221570000000     0.032110000000     0.488440000000     0.0609795  
C146     C      0.166640000000     0.040200000000     0.521720000000    -0.0430335  
C147     C      0.235690000000     0.005110000000     0.509920000000    -0.0566043  
C148     C      0.128540000000     0.054210000000     0.518590000000     0.0425469  
C149     C      0.127960000000     0.029910000000     0.455880000000     0.000627397
C150     C      0.281190000000     0.046570000000     0.468860000000    -0.0563377  
C151     C      0.852300000000     0.997590000000     0.544400000000    -0.0321012  
C152     C      0.664520000000     0.956210000000     0.510310000000    -0.0327061  
C153     C      0.629440000000     0.012880000000     0.549230000000    -0.00133093 
C154     C      0.626950000000     0.950630000000     0.524680000000    -0.000560868
C155     C      0.744880000000     0.962900000000     0.546020000000    -0.0546022  
C156     C      0.771100000000     0.006940000000     0.492880000000    -0.0538832  
C157     C      0.721180000000     0.982320000000     0.525160000000     0.060912   
C158     C      0.666880000000     0.016020000000     0.534410000000    -0.0319385  
C159     C      0.794870000000     0.989250000000     0.515130000000     0.0609581  
C160     C      0.849810000000     0.973370000000     0.485410000000    -0.0433425  
C161     C      0.781430000000     0.965710000000     0.540710000000    -0.0563662  
C162     C      0.885590000000     0.989910000000     0.474940000000     0.0430475  
C163     C      0.888520000000     0.014490000000     0.538090000000    -0.000726342
C164     C      0.734580000000     0.003040000000     0.497290000000    -0.0563712  
C165     C      0.031960000000     0.858280000000     0.477740000000    -0.0321332  
C166     C      0.984230000000     0.675700000000     0.520460000000    -0.0323593  
C167     C      0.036310000000     0.634970000000     0.480490000000    -0.00188227 
C168     C      0.973460000000     0.639740000000     0.505190000000    -0.000609043
C169     C      0.992030000000     0.753510000000     0.487060000000    -0.0541507  
C170     C      0.046920000000     0.779490000000     0.529160000000    -0.0544713  
C171     C      0.014910000000     0.729610000000     0.503830000000     0.0604098  
C172     C      0.043390000000     0.671510000000     0.496250000000    -0.0317169  
C173     C      0.025290000000     0.803290000000     0.510730000000     0.0610003  
C174     C      0.012140000000     0.859490000000     0.538890000000    -0.043616   
C175     C      0.996580000000     0.790000000000     0.491020000000    -0.0567663  
C176     C      0.026550000000     0.897380000000     0.544250000000     0.0437776  
C177     C      0.047400000000     0.895480000000     0.480440000000    -4.82894e-05
C178     C      0.041450000000     0.742970000000     0.526390000000    -0.0559694  
C179     C      0.977790000000     0.167500000000     0.447360000000    -0.0324294  
C180     C      0.009070000000     0.352390000000     0.490540000000    -0.0325069  
C181     C      0.954150000000     0.398480000000     0.461900000000    -0.00203933 
C182     C      0.018590000000     0.390400000000     0.480410000000    -0.000411213
C183     C      0.998820000000     0.279970000000     0.448180000000    -0.0541668  
C184     C      0.951860000000     0.248120000000     0.495370000000    -0.0542505  
C185     C      0.977100000000     0.301360000000     0.469320000000     0.0605054  
C186     C      0.948170000000     0.359700000000     0.471910000000    -0.0319722  
C187     C      0.973530000000     0.226730000000     0.474200000000     0.0611665  
C188     C      0.996060000000     0.177370000000     0.507830000000    -0.0436963  
C189     C      0.997700000000     0.243080000000     0.451020000000    -0.056533   
C190     C      0.986970000000     0.139280000000     0.518740000000     0.0439775  
C191     C      0.968820000000     0.128600000000     0.454630000000    -0.000548226
C192     C      0.954050000000     0.285000000000     0.493610000000    -0.0561246  
H1       H      0.704570000000     0.475740000000     0.014470000000     0.0404282  
H2       H      0.815730000000     0.454490000000     0.965360000000     0.0333003  
H3       H      0.824390000000     0.563680000000     0.990690000000     0.0386371  
H4       H      0.612800000000     0.538150000000     0.927300000000     0.0344041  
H5       H      0.866940000000     0.457250000000     0.002750000000     0.0389691  
H6       H      0.662190000000     0.539190000000     0.027080000000     0.0340323  
H7       H      0.664830000000     0.500620000000     0.921940000000     0.0331906  
H8       H      0.596290000000     0.530290000000     0.029150000000     0.0380346  
H9       H      0.891440000000     0.559050000000     0.981620000000     0.0305033  
H10      H      0.768920000000     0.471560000000     0.018820000000     0.0438828  
H11      H      0.882040000000     0.450730000000     0.958410000000     0.0347974  
H12      H      0.715240000000     0.556800000000     0.934910000000     0.0426202  
H13      H      0.833520000000     0.485780000000     0.934200000000     0.0366161  
H14      H      0.599180000000     0.492710000000     0.922550000000     0.0372405  
H15      H      0.648270000000     0.494220000000     0.018260000000     0.037469   
H16      H      0.650220000000     0.471790000000     0.956980000000     0.0390538  
H17      H      0.779600000000     0.550100000000     0.936800000000     0.0393099  
H18      H      0.839210000000     0.547020000000     0.948980000000     0.0372654  
H19      H      0.610400000000     0.562980000000     0.997890000000     0.0331562  
H20      H      0.285320000000     0.502550000000     0.037890000000     0.0395339  
H21      H      0.173420000000     0.526880000000     0.992300000000     0.033062   
H22      H      0.160030000000     0.420060000000     0.025070000000     0.0388655  
H23      H      0.367810000000     0.439340000000     0.941940000000     0.034291   
H24      H      0.121710000000     0.526700000000     0.029970000000     0.0370957  
H25      H      0.329420000000     0.440540000000     0.046370000000     0.0335608  
H26      H      0.315510000000     0.476820000000     0.941300000000     0.0328174  
H27      H      0.395180000000     0.449730000000     0.041260000000     0.0376835  
H28      H      0.093620000000     0.426210000000     0.015010000000     0.0310575  
H29      H      0.221530000000     0.508400000000     0.046440000000     0.0432973  
H30      H      0.108080000000     0.533740000000     0.985150000000     0.0356417  
H31      H      0.267290000000     0.421900000000     0.959240000000     0.0424779  
H32      H      0.154640000000     0.494610000000     0.962680000000     0.0370909  
H33      H      0.380710000000     0.484650000000     0.934710000000     0.0368385  
H34      H      0.342120000000     0.485330000000     0.035130000000     0.0363321  
H35      H      0.333710000000     0.506350000000     0.974010000000     0.0377786  
H36      H      0.203500000000     0.430210000000     0.965370000000     0.0393732  
H37      H      0.146360000000     0.433680000000     0.981850000000     0.0379126  
H38      H      0.377990000000     0.416160000000     0.012540000000     0.0332245  
H39      H      0.515930000000     0.693230000000     0.029240000000     0.039755   
H40      H      0.536870000000     0.810210000000     0.989790000000     0.0335166  
H41      H      0.434250000000     0.817880000000     0.035120000000     0.0390337  
H42      H      0.443150000000     0.614910000000     0.938570000000     0.0344084  
H43      H      0.540620000000     0.857590000000     0.032550000000     0.0369557  
H44      H      0.447800000000     0.654100000000     0.042420000000     0.0337896  
H45      H      0.483000000000     0.665550000000     0.936690000000     0.0331957  
H46      H      0.452560000000     0.588090000000     0.037600000000     0.037791   
H47      H      0.438740000000     0.885080000000     0.031920000000     0.0315432  
H48      H      0.524080000000     0.756270000000     0.041450000000     0.0435143  
H49      H      0.542280000000     0.876220000000     0.989020000000     0.0366647  
H50      H      0.428470000000     0.717980000000     0.960270000000     0.0428997  
H51      H      0.501380000000     0.831480000000     0.966050000000     0.0384983  
H52      H      0.487630000000     0.599690000000     0.930550000000     0.0365301  
H53      H      0.491670000000     0.638820000000     0.030840000000     0.036897   
H54      H      0.512400000000     0.646120000000     0.968830000000     0.0377543  
H55      H      0.438810000000     0.781180000000     0.969820000000     0.0399517  
H56      H      0.442930000000     0.836460000000     0.992460000000     0.0386645  
H57      H      0.420480000000     0.607140000000     0.008380000000     0.0331104  
H58      H      0.552350000000     0.199270000000     0.954500000000     0.0394027  
H59      H      0.499390000000     0.313450000000     0.933100000000     0.0332342  
H60      H      0.546520000000     0.322510000000     0.034440000000     0.0391053  
H61      H      0.462230000000     0.116680000000     0.027880000000     0.0354055  
H62      H      0.536860000000     0.365620000000     0.931030000000     0.0368542  
H63      H      0.566740000000     0.159340000000     0.015990000000     0.0336318  
H64      H      0.458450000000     0.165250000000     0.986720000000     0.0327468  
H65      H      0.564080000000     0.092590000000     0.011630000000     0.0376938  
H66      H      0.536120000000     0.388870000000     0.032790000000     0.0312262  
H67      H      0.558880000000     0.263230000000     0.946800000000     0.0434951  
H68      H      0.491230000000     0.379090000000     0.930080000000     0.0360985  
H69      H      0.476390000000     0.217180000000     0.037660000000     0.0425395  
H70      H      0.473890000000     0.330580000000     0.969520000000     0.0371602  
H71      H      0.455280000000     0.098810000000     0.984560000000     0.0358471  
H72      H      0.552410000000     0.142340000000     0.973810000000     0.0354712  
H73      H      0.490430000000     0.145800000000     0.957210000000     0.037051   
H74      H      0.480410000000     0.280960000000     0.027610000000     0.0394478  
H75      H      0.501600000000     0.336530000000     0.027890000000     0.0381599  
H76      H      0.539400000000     0.111390000000     0.047330000000     0.0340696  
H77      H      0.520470000000     0.939670000000     0.722690000000     0.0396022  
H78      H      0.541040000000     0.990550000000     0.832980000000     0.0330933  
H79      H      0.432900000000     0.960980000000     0.842360000000     0.0387852  
H80      H      0.467300000000     0.037380000000     0.635210000000     0.0349183  
H81      H      0.538260000000     0.954840000000     0.885620000000     0.0369009  
H82      H      0.460880000000     0.932580000000     0.675410000000     0.0337172  
H83      H      0.502110000000     0.036330000000     0.688790000000     0.0327358  
H84      H      0.474640000000     0.935640000000     0.610310000000     0.03763    
H85      H      0.436460000000     0.973250000000     0.908420000000     0.0307989  
H86      H      0.522820000000     0.933550000000     0.786710000000     0.0432932  
H87      H      0.544730000000     0.000230000000     0.898180000000     0.0356584  
H88      H      0.442740000000     0.022840000000     0.733390000000     0.0426594  
H89      H      0.508640000000     0.021630000000     0.849140000000     0.0368571  
H90      H      0.513490000000     0.040800000000     0.624210000000     0.0363547  
H91      H      0.506730000000     0.941470000000     0.664960000000     0.0359936  
H92      H      0.530310000000     0.001340000000     0.672660000000     0.0373826  
H93      H      0.447560000000     0.018960000000     0.797440000000     0.0393038  
H94      H      0.447320000000     0.004360000000     0.855220000000     0.0374829  
H95      H      0.440490000000     0.965240000000     0.624750000000     0.033896   
H96      H      0.561690000000     0.034330000000     0.221880000000     0.0396164  
H97      H      0.514630000000     0.059350000000     0.339980000000     0.0334068  
H98      H      0.544750000000     0.950860000000     0.338740000000     0.0392724  
H99      H      0.460000000000     0.977690000000     0.138800000000     0.0366028  
H100     H      0.553670000000     0.051070000000     0.390130000000     0.0372582  
H101     H      0.565160000000     0.972940000000     0.181210000000     0.0339409  
H102     H      0.462780000000     0.018880000000     0.187340000000     0.0328378  
H103     H      0.563220000000     0.978020000000     0.114850000000     0.0381393  
H104     H      0.537530000000     0.948490000000     0.405030000000     0.0311519  
H105     H      0.570360000000     0.038310000000     0.285620000000     0.0438088  
H106     H      0.509290000000     0.057870000000     0.405880000000     0.0354065  
H107     H      0.471430000000     0.966080000000     0.238330000000     0.0428749  
H108     H      0.484060000000     0.026030000000     0.355370000000     0.037065   
H109     H      0.460040000000     0.021850000000     0.121180000000     0.0359373  
H110     H      0.557590000000     0.017150000000     0.164540000000     0.0355887  
H111     H      0.499010000000     0.043260000000     0.168130000000     0.0372436  
H112     H      0.478040000000     0.972990000000     0.302030000000     0.0395506  
H113     H      0.502090000000     0.963300000000     0.355480000000     0.038499   
H114     H      0.533300000000     0.946300000000     0.133410000000     0.0355897  
H115     H      0.968530000000     0.530250000000     0.780460000000     0.039753   
H116     H      0.056630000000     0.516300000000     0.661480000000     0.0336563  
H117     H      0.947700000000     0.488430000000     0.665090000000     0.0378606  
H118     H      0.059640000000     0.506980000000     0.869810000000     0.0328466  
H119     H      0.031220000000     0.549480000000     0.613970000000     0.0356667  
H120     H      0.989810000000     0.436870000000     0.816570000000     0.0329874  
H121     H      0.036260000000     0.539260000000     0.819930000000     0.0336621  
H122     H      0.983690000000     0.437040000000     0.882420000000     0.0357813  
H123     H      0.946340000000     0.487730000000     0.598180000000     0.0287595  
H124     H      0.964530000000     0.539170000000     0.716800000000     0.0441706  
H125     H      0.055350000000     0.513360000000     0.595110000000     0.0374428  
H126     H      0.047710000000     0.449400000000     0.764370000000     0.042653   
H127     H      0.041540000000     0.474630000000     0.643450000000     0.0352129  
H128     H      0.030070000000     0.540530000000     0.885670000000     0.0375442  
H129     H      0.964140000000     0.473810000000     0.832670000000     0.0374867  
H130     H      0.991280000000     0.533460000000     0.835260000000     0.0367924  
H131     H      0.041140000000     0.455840000000     0.700590000000     0.0392635  
H132     H      0.979490000000     0.459640000000     0.645000000000     0.0391507  
H133     H      0.028890000000     0.437960000000     0.867380000000     0.0348813  
H134     H      0.940090000000     0.484060000000     0.279950000000     0.039784   
H135     H      0.964250000000     0.560630000000     0.155840000000     0.0343143  
H136     H      0.986620000000     0.450980000000     0.168330000000     0.0386897  
H137     H      0.970990000000     0.572500000000     0.367710000000     0.0337732  
H138     H      0.934360000000     0.531560000000     0.107640000000     0.0373601  
H139     H      0.038810000000     0.499540000000     0.313570000000     0.0330077  
H140     H      0.937260000000     0.547510000000     0.319790000000     0.0336921  
H141     H      0.041760000000     0.496140000000     0.379280000000     0.0364003  
H142     H      0.994180000000     0.445430000000     0.102180000000     0.0299156  
H143     H      0.932620000000     0.477070000000     0.216410000000     0.0446878  
H144     H      0.971480000000     0.555390000000     0.090420000000     0.03865    
H145     H      0.030330000000     0.551990000000     0.262030000000     0.0426564  
H146     H      0.006720000000     0.543190000000     0.142220000000     0.0367585  
H147     H      0.938870000000     0.542720000000     0.385940000000     0.0379578  
H148     H      0.002160000000     0.475400000000     0.332360000000     0.0378282  
H149     H      0.943550000000     0.502980000000     0.336230000000     0.0361532  
H150     H      0.024960000000     0.542100000000     0.198680000000     0.0399501  
H151     H      0.019100000000     0.480020000000     0.149640000000     0.0406442  
H152     H      0.041000000000     0.540710000000     0.362510000000     0.0348941  
H153     H      0.298100000000     0.062400000000     0.452100000000     0.0394191  
H154     H      0.179570000000     0.015100000000     0.436530000000     0.0333158  
H155     H      0.182140000000     0.056720000000     0.540600000000     0.0393518  
H156     H      0.381470000000     0.963180000000     0.511540000000     0.0360916  
H157     H      0.129690000000     0.055330000000     0.441150000000     0.0370727  
H158     H      0.340900000000     0.070710000000     0.513130000000     0.0336728  
H159     H      0.331460000000     0.966440000000     0.472780000000     0.0328247  
H160     H      0.407560000000     0.067010000000     0.505120000000     0.037273   
H161     H      0.115400000000     0.049710000000     0.544440000000     0.0316075  
H162     H      0.234090000000     0.072180000000     0.449860000000     0.0436036  
H163     H      0.113640000000     0.010570000000     0.438960000000     0.0359169  
H164     H      0.282810000000     0.980590000000     0.530120000000     0.043041   
H165     H      0.164250000000     0.988480000000     0.472970000000     0.0375265  
H166     H      0.398240000000     0.962970000000     0.467330000000     0.0349244  
H167     H      0.356070000000     0.060330000000     0.469170000000     0.0349339  
H168     H      0.350680000000     0.001210000000     0.446450000000     0.0364319  
H169     H      0.218690000000     0.988050000000     0.525340000000     0.0401142  
H170     H      0.165130000000     0.013020000000     0.533000000000     0.0391612  
H171     H      0.389430000000     0.040900000000     0.540110000000     0.0344948  
H172     H      0.717020000000     0.017150000000     0.479670000000     0.0406574  
H173     H      0.837890000000     0.013690000000     0.564370000000     0.0341393  
H174     H      0.832920000000     0.969640000000     0.461560000000     0.038062   
H175     H      0.631360000000     0.005540000000     0.577570000000     0.032713   
H176     H      0.884860000000     0.043510000000     0.534510000000     0.0374086  
H177     H      0.678150000000     0.930070000000     0.509590000000     0.0335581  
H178     H      0.682360000000     0.034270000000     0.551560000000     0.0340089  
H179     H      0.611960000000     0.933770000000     0.505810000000     0.03665    
H180     H      0.900350000000     0.969970000000     0.459080000000     0.0284251  
H181     H      0.781000000000     0.024300000000     0.472390000000     0.044889   
H182     H      0.904770000000     0.010780000000     0.562260000000     0.0381407  
H183     H      0.734950000000     0.946010000000     0.566890000000     0.0428523  
H184     H      0.856310000000     0.970480000000     0.555290000000     0.0349397  
H185     H      0.616340000000     0.039210000000     0.547800000000     0.0375317  
H186     H      0.663160000000     0.966690000000     0.482880000000     0.0389328  
H187     H      0.665100000000     0.027850000000     0.507590000000     0.0379316  
H188     H      0.798930000000     0.950510000000     0.557450000000     0.0394272  
H189     H      0.854320000000     0.946530000000     0.496800000000     0.0388579  
H190     H      0.628690000000     0.936230000000     0.550200000000     0.0347417  
H191     H      0.058750000000     0.725460000000     0.540960000000     0.0396097  
H192     H      0.047610000000     0.843040000000     0.458010000000     0.0339993  
H193     H      0.012350000000     0.844880000000     0.564440000000     0.0385003  
H194     H      0.031950000000     0.637970000000     0.451650000000     0.0339789  
H195     H      0.076330000000     0.893190000000     0.485490000000     0.0349407  
H196     H      0.960020000000     0.692440000000     0.522460000000     0.0330361  
H197     H      0.063620000000     0.685130000000     0.479740000000     0.0334703  
H198     H      0.956240000000     0.625930000000     0.524640000000     0.0367548  
H199     H      0.007250000000     0.911850000000     0.561110000000     0.0287574  
H200     H      0.068440000000     0.789340000000     0.545320000000     0.0443339  
H201     H      0.044220000000     0.909000000000     0.454600000000     0.0374116  
H202     H      0.970810000000     0.743720000000     0.470480000000     0.0425358  
H203     H      0.004200000000     0.860540000000     0.468110000000     0.036843   
H204     H      0.060460000000     0.618450000000     0.483980000000     0.037745   
H205     H      0.995230000000     0.672270000000     0.547500000000     0.0378045  
H206     H      0.054370000000     0.667980000000     0.523270000000     0.0356648  
H207     H      0.978330000000     0.807600000000     0.477750000000     0.0396233  
H208     H      0.983990000000     0.861040000000     0.530150000000     0.0392998  
H209     H      0.957490000000     0.644190000000     0.480950000000     0.0357151  
H210     H      0.937750000000     0.300400000000     0.511320000000     0.0396045  
H211     H      0.960460000000     0.177260000000     0.425700000000     0.0342631  
H212     H      0.993900000000     0.195250000000     0.531160000000     0.0383852  
H213     H      0.956660000000     0.400300000000     0.432740000000     0.0339167  
H214     H      0.939580000000     0.126050000000     0.457190000000     0.0370873  
H215     H      0.033410000000     0.335910000000     0.487960000000     0.0330106  
H216     H      0.926760000000     0.348720000000     0.454950000000     0.0336355  
H217     H      0.037730000000     0.400870000000     0.500140000000     0.0359893  
H218     H      0.007890000000     0.130460000000     0.537460000000     0.0305589  
H219     H      0.933860000000     0.236010000000     0.514080000000     0.044499   
H220     H      0.976920000000     0.112570000000     0.431390000000     0.0382784  
H221     H      0.017370000000     0.292080000000     0.430020000000     0.0427558  
H222     H      0.005840000000     0.168930000000     0.438410000000     0.0361157  
H223     H      0.930290000000     0.413950000000     0.469560000000     0.0377864  
H224     H      0.000310000000     0.351360000000     0.518580000000     0.0374431  
H225     H      0.939210000000     0.358780000000     0.499850000000     0.0357413  
H226     H      0.015830000000     0.227680000000     0.435160000000     0.0398633  
H227     H      0.024170000000     0.178520000000     0.498890000000     0.0405893  
H228     H      0.032070000000     0.390160000000     0.454330000000     0.0351916  
N1       N      0.891700000000     0.502250000000     0.980320000000    -0.184575   
N2       N      0.817350000000     0.507950000000     0.983450000000    -0.109853   
N3       N      0.666930000000     0.523280000000     0.973340000000    -0.113259   
N4       N      0.592600000000     0.515570000000     0.974220000000    -0.181318   
N5       N      0.095670000000     0.482590000000     0.007170000000    -0.185056   
N6       N      0.169870000000     0.474530000000     0.013110000000    -0.110148   
N7       N      0.318950000000     0.455210000000     0.993100000000    -0.11334    
N8       N      0.392940000000     0.462970000000     0.985880000000    -0.181481   
N9       N      0.493950000000     0.885060000000     0.017930000000    -0.184522   
N10      N      0.487160000000     0.810530000000     0.016400000000    -0.110091   
N11      N      0.462530000000     0.663580000000     0.988970000000    -0.113445   
N12      N      0.466560000000     0.589250000000     0.982320000000    -0.181463   
N13      N      0.519240000000     0.389240000000     0.978570000000    -0.184924   
N14      N      0.526710000000     0.314760000000     0.982200000000    -0.110322   
N15      N      0.511650000000     0.165760000000     0.005460000000    -0.112963   
N16      N      0.507240000000     0.091210000000     0.006400000000    -0.181005   
N17      N      0.493090000000     0.978600000000     0.908800000000    -0.184898   
N18      N      0.488170000000     0.970830000000     0.834920000000    -0.110166   
N19      N      0.477410000000     0.985680000000     0.685180000000    -0.113128   
N20      N      0.488390000000     0.991080000000     0.611820000000    -0.181382   
N21      N      0.529510000000     0.004730000000     0.410520000000    -0.185227   
N22      N      0.533450000000     0.006320000000     0.336120000000    -0.110256   
N23      N      0.512380000000     0.991930000000     0.187680000000    -0.112766   
N24      N      0.507870000000     0.992000000000     0.113550000000    -0.180804   
N25      N      0.998330000000     0.509680000000     0.592280000000    -0.184949   
N26      N      0.001170000000     0.507080000000     0.666470000000    -0.110082   
N27      N      0.016220000000     0.486710000000     0.814800000000    -0.113389   
N28      N      0.011220000000     0.486530000000     0.888910000000    -0.181899   
N29      N      0.976360000000     0.498250000000     0.091320000000    -0.184865   
N30      N      0.971150000000     0.505360000000     0.165160000000    -0.110119   
N31      N      0.989470000000     0.527050000000     0.313160000000    -0.113139   
N32      N      0.993280000000     0.525080000000     0.387270000000    -0.181716   
N33      N      0.109370000000     0.036180000000     0.489620000000    -0.185258   
N34      N      0.184040000000     0.039620000000     0.486890000000    -0.110311   
N35      N      0.333170000000     0.017010000000     0.497630000000    -0.112802   
N36      N      0.407250000000     0.010660000000     0.496670000000    -0.181334   
N37      N      0.906550000000     0.000230000000     0.506400000000    -0.184703   
N38      N      0.832290000000     0.996450000000     0.511190000000    -0.109987   
N39      N      0.683830000000     0.980840000000     0.533380000000    -0.113414   
N40      N      0.609380000000     0.985020000000     0.530630000000    -0.181815   
N41      N      0.030980000000     0.915280000000     0.509830000000    -0.185763   
N42      N      0.033490000000     0.840670000000     0.512390000000    -0.110439   
N43      N      0.010360000000     0.692170000000     0.497000000000    -0.112928   
N44      N      0.004640000000     0.617950000000     0.495990000000    -0.181362   
N45      N      0.985410000000     0.115670000000     0.487580000000    -0.184935   
N46      N      0.972210000000     0.188790000000     0.479420000000    -0.109985   
N47      N      0.981110000000     0.339410000000     0.466920000000    -0.113012   
N48      N      0.986760000000     0.413000000000     0.477980000000    -0.181613   
O1       O      0.018500000000     0.963160000000     0.474820000000    -0.560107   
O2       O      0.995050000000     0.060350000000     0.463840000000    -0.555594   
O3       O      0.055660000000     0.022210000000     0.464950000000    -0.558094   
O4       O      0.957790000000     0.000720000000     0.473680000000    -0.555211   
O5       O      0.960820000000     0.011160000000     0.531490000000    -0.559845   
O6       O      0.059480000000     0.028320000000     0.523350000000    -0.558782   
O7       O      0.001240000000     0.068260000000     0.521800000000    -0.559678   
O8       O      0.019040000000     0.970070000000     0.533240000000    -0.557892   
O9       O      0.026420000000     0.511180000000     0.538580000000    -0.559243   
O10      O      0.023440000000     0.514420000000     0.438650000000    -0.558679   
O11      O      0.029290000000     0.562730000000     0.490050000000    -0.5589     
O12      O      0.020560000000     0.462670000000     0.486870000000    -0.559034   
O13      O      0.961790000000     0.468180000000     0.483700000000    -0.556965   
O14      O      0.970800000000     0.567460000000     0.497200000000    -0.555976   
O15      O      0.965280000000     0.524690000000     0.440990000000    -0.557001   
O16      O      0.967350000000     0.511100000000     0.540180000000    -0.554861   
O17      O      0.554510000000     0.962260000000     0.517930000000    -0.556181   
O18      O      0.456600000000     0.975060000000     0.498320000000    -0.555774   
O19      O      0.516400000000     0.971960000000     0.459670000000    -0.558494   
O20      O      0.494810000000     0.965310000000     0.557230000000    -0.555409   
O21      O      0.503800000000     0.023450000000     0.563060000000    -0.559293   
O22      O      0.520060000000     0.030770000000     0.464500000000    -0.5562     
O23      O      0.462720000000     0.033300000000     0.506540000000    -0.560055   
O24      O      0.561120000000     0.020880000000     0.522180000000    -0.5592     
O25      O      0.533330000000     0.986280000000     0.058870000000    -0.556365   
O26      O      0.526350000000     0.985480000000     0.959010000000    -0.557143   
O27      O      0.533290000000     0.036240000000     0.008410000000    -0.556398   
O28      O      0.526400000000     0.935830000000     0.009500000000    -0.555914   
O29      O      0.468190000000     0.940220000000     0.018710000000    -0.554925   
O30      O      0.474310000000     0.040060000000     0.007420000000    -0.555765   
O31      O      0.467420000000     0.984450000000     0.963420000000    -0.55582    
O32      O      0.475070000000     0.995520000000     0.062690000000    -0.554895   
O33      O      0.983950000000     0.465580000000     0.040840000000    -0.554265   
O34      O      0.998080000000     0.460100000000     0.941800000000    -0.556983   
O35      O      0.040520000000     0.458080000000     0.999160000000    -0.556321   
O36      O      0.941520000000     0.467540000000     0.983890000000    -0.556062   
O37      O      0.947550000000     0.526330000000     0.981780000000    -0.557837   
O38      O      0.046540000000     0.516840000000     0.996610000000    -0.558989   
O39      O      0.005130000000     0.518770000000     0.939750000000    -0.560759   
O40      O      0.988990000000     0.524440000000     0.038220000000    -0.55971    
O41      O      0.509860000000     0.441280000000     0.008490000000    -0.556833   
O42      O      0.479230000000     0.537050000000     0.010610000000    -0.556973   
O43      O      0.446640000000     0.473870000000     0.012290000000    -0.555778   
O44      O      0.542420000000     0.504500000000     0.006680000000    -0.55538    
O45      O      0.540240000000     0.499360000000     0.948130000000    -0.556628   
O46      O      0.441900000000     0.479240000000     0.953920000000    -0.557307   
O47      O      0.481050000000     0.538700000000     0.951840000000    -0.555004   
O48      O      0.501090000000     0.439960000000     0.950350000000    -0.555081   
S1       S      0.875880000000     0.538600000000     0.034260000000    -0.0195494  
S2       S      0.108820000000     0.452180000000     0.065170000000    -0.0238934  
S3       S      0.470170000000     0.864910000000     0.077000000000    -0.0226956  
S4       S      0.581640000000     0.375170000000     0.998600000000    -0.0247179  
S5       S      0.460780000000     0.921260000000     0.895930000000    -0.0228622  
S6       S      0.587320000000     0.976460000000     0.391720000000    -0.0251156  
S7       S      0.946020000000     0.543290000000     0.617600000000    -0.0209453  
S8       S      0.936920000000     0.449490000000     0.115200000000    -0.0187769  
S9       S      0.128540000000     0.096490000000     0.511700000000    -0.0247286  
S10      S      0.879300000000     0.024260000000     0.450120000000    -0.0185649  
S11      S      0.063970000000     0.896610000000     0.564990000000    -0.0224187  
S12      S      0.949530000000     0.138070000000     0.539510000000    -0.0206824  
V1       V      0.006590000000     0.011310000000     0.466980000000     1.39043    
V2       V      0.010340000000     0.019610000000     0.529810000000     1.40158    
V3       V      0.027320000000     0.512490000000     0.488530000000     1.39489    
V4       V      0.963890000000     0.518010000000     0.490650000000     1.38793    
V5       V      0.505290000000     0.966300000000     0.508080000000     1.3869     
V6       V      0.512220000000     0.029440000000     0.514140000000     1.3956     
V7       V      0.532240000000     0.985860000000     0.008760000000     1.38883    
V8       V      0.468850000000     0.990290000000     0.013190000000     1.38666    
V9       V      0.990800000000     0.460460000000     0.991430000000     1.38808    
V10      V      0.997310000000     0.523910000000     0.988910000000     1.39919    
V11      V      0.494690000000     0.489160000000     0.011920000000     1.38739    
V12      V      0.490920000000     0.489330000000     0.948660000000     1.38613    


