data_structure

_audit_creation_method RASPA-1.0
_audit_creation_date 2023-5-25
_audit_author_name 'Poobodin Mano'

_cell_length_a    38.1539
_cell_length_b    37.9666
_cell_length_c    37.8927
_cell_angle_alpha 90
_cell_angle_beta  90
_cell_angle_gamma 90
_cell_volume      54890.4

_symmetry_cell_setting          triclinic
_symmetry_space_group_name_Hall 'P 1'
_symmetry_space_group_name_H-M  'P 1'
_symmetry_Int_Tables_number     1

_symmetry_equiv_pos_as_xyz 'x,y,z'

loop_
_atom_site_label
_atom_site_type_symbol
_atom_site_fract_x
_atom_site_fract_y
_atom_site_fract_z
_atom_site_charge
C1       C      0.993660000000     0.927590000000     0.490570000000     0.473785   
C2       C      0.991440000000     0.060380000000     0.502300000000     0.474973   
C3       C      0.058860000000     0.993660000000     0.495060000000     0.475003   
C4       C      0.926190000000     0.994250000000     0.497850000000     0.473496   
C5       C      0.992280000000     0.560210000000     0.478330000000     0.477727   
C6       C      0.991840000000     0.429330000000     0.504260000000     0.474329   
C7       C      0.989370000000     0.481310000000     0.426280000000     0.475407   
C8       C      0.994990000000     0.508520000000     0.557250000000     0.4748     
C9       C      0.492340000000     0.992970000000     0.438130000000     0.473373   
C10      C      0.490900000000     0.002900000000     0.571360000000     0.475832   
C11      C      0.425780000000     0.998910000000     0.504540000000     0.473422   
C12      C      0.558470000000     0.997050000000     0.506080000000     0.475051   
C13      C      0.503520000000     0.984700000000     0.069940000000     0.477436   
C14      C      0.503270000000     0.012480000000     0.939180000000     0.474872   
C15      C      0.504070000000     0.064060000000     0.018120000000     0.472298   
C16      C      0.502550000000     0.932990000000     0.991890000000     0.474317   
C17      C      0.987230000000     0.491310000000     0.058290000000     0.472799   
C18      C      0.002250000000     0.508110000000     0.926310000000     0.470816   
C19      C      0.061120000000     0.497860000000     0.000420000000     0.473966   
C20      C      0.929140000000     0.501560000000     0.984380000000     0.472074   
C21      C      0.497890000000     0.432050000000     0.003270000000     0.474594   
C22      C      0.492780000000     0.564360000000     0.985130000000     0.472172   
C23      C      0.428890000000     0.497350000000     0.997580000000     0.471574   
C24      C      0.561680000000     0.498900000000     0.990610000000     0.475261   
C25      C      0.655730000000     0.515860000000     0.012630000000    -0.0314017  
C26      C      0.838050000000     0.469300000000     0.972020000000    -0.0319642  
C27      C      0.874060000000     0.535540000000     0.986300000000    -0.00096211 
C28      C      0.875910000000     0.474110000000     0.959690000000    -0.00215773 
C29      C      0.760700000000     0.523190000000     0.957720000000    -0.0534904  
C30      C      0.730620000000     0.475190000000     0.004650000000    -0.0530855  
C31      C      0.782470000000     0.501070000000     0.977630000000     0.0610148  
C32      C      0.836490000000     0.527630000000     0.998120000000    -0.0323332  
C33      C      0.708820000000     0.496290000000     0.983680000000     0.0625732  
C34      C      0.652320000000     0.493850000000     0.952850000000    -0.0350833  
C35      C      0.724250000000     0.521390000000     0.961100000000    -0.0562378  
C36      C      0.614450000000     0.481090000000     0.957600000000     0.0198901  
C37      C      0.618430000000     0.503670000000     0.021230000000    -0.000790879
C38      C      0.767070000000     0.477930000000     0.002240000000    -0.0551698  
C39      C      0.613720000000     0.442440000000     0.960780000000     0.054032   
C40      C      0.152490000000     0.530360000000     0.010690000000    -0.0316112  
C41      C      0.334810000000     0.480700000000     0.975370000000    -0.0323602  
C42      C      0.376130000000     0.514900000000     0.030420000000    -0.00201366 
C43      C      0.372250000000     0.492520000000     0.966900000000    -0.000788283
C44      C      0.260640000000     0.521590000000     0.981510000000    -0.0535571  
C45      C      0.229050000000     0.476340000000     0.030120000000    -0.0540355  
C46      C      0.281780000000     0.501210000000     0.003840000000     0.0604333  
C47      C      0.338210000000     0.502750000000     0.035110000000    -0.0319077  
C48      C      0.207940000000     0.497770000000     0.008760000000     0.0618867  
C49      C      0.153910000000     0.470080000000     0.989580000000    -0.0359076  
C50      C      0.224110000000     0.519470000000     0.983350000000    -0.0565668  
C51      C      0.115950000000     0.463250000000     0.001420000000     0.0210701  
C52      C      0.114470000000     0.526910000000     0.022970000000    -0.00113409 
C53      C      0.265570000000     0.477450000000     0.027320000000    -0.055232   
C54      C      0.115630000000     0.443420000000     0.034820000000     0.0509163  
C55      C      0.528750000000     0.841600000000     0.964700000000    -0.0319635  
C56      C      0.488730000000     0.658550000000     0.009550000000    -0.0317956  
C57      C      0.495080000000     0.616190000000     0.945660000000    -0.00112268 
C58      C      0.473450000000     0.621460000000     0.008790000000    -0.00190825 
C59      C      0.473900000000     0.733270000000     0.952570000000    -0.0534777  
C60      C      0.523950000000     0.763430000000     0.997050000000    -0.0527044  
C61      C      0.495070000000     0.711380000000     0.973360000000     0.0609807  
C62      C      0.509710000000     0.653750000000     0.949220000000    -0.032362   
C63      C      0.501080000000     0.785390000000     0.978210000000     0.0620593  
C64      C      0.467960000000     0.840970000000     0.982600000000    -0.0350906  
C65      C      0.477240000000     0.769920000000     0.954330000000    -0.0556252  
C66      C      0.470320000000     0.877500000000     0.999660000000     0.0198384  
C67      C      0.535030000000     0.877960000000     0.981210000000    -0.000272521
C68      C      0.521600000000     0.726800000000     0.994140000000    -0.05528    
C69      C      0.470860000000     0.873990000000     0.038380000000     0.0509627  
C70      C      0.488230000000     0.335310000000     0.987660000000    -0.031439   
C71      C      0.539260000000     0.154520000000     0.027980000000    -0.032083   
C72      C      0.471270000000     0.119620000000     0.025360000000    -0.000946292
C73      C      0.535970000000     0.116270000000     0.040360000000    -0.00225029 
C74      C      0.486270000000     0.232640000000     0.049600000000    -0.0534435  
C75      C      0.530250000000     0.263780000000     0.999700000000    -0.0529579  
C76      C      0.507760000000     0.211140000000     0.028670000000     0.0607054  
C77      C      0.477570000000     0.157370000000     0.012660000000    -0.0324184  
C78      C      0.509270000000     0.285320000000     0.021100000000     0.0623182  
C79      C      0.505410000000     0.344230000000     0.048340000000    -0.0350119  
C80      C      0.486370000000     0.269240000000     0.045470000000    -0.0559863  
C81      C      0.515720000000     0.382830000000     0.041790000000     0.0197165  
C82      C      0.498680000000     0.372750000000     0.977120000000    -0.000541347
C83      C      0.529040000000     0.227110000000     0.002790000000    -0.0551434  
C84      C      0.554160000000     0.386330000000     0.041780000000     0.0540894  
C85      C      0.487550000000     0.043830000000     0.660710000000    -0.0316133  
C86      C      0.527770000000     0.006100000000     0.845640000000    -0.032261   
C87      C      0.472340000000     0.037910000000     0.887930000000    -0.00167495 
C88      C      0.535740000000     0.018690000000     0.883170000000    -0.000820175
C89      C      0.516780000000     0.043600000000     0.769810000000    -0.0536323  
C90      C      0.470930000000     0.993590000000     0.741740000000    -0.054097   
C91      C      0.496670000000     0.022780000000     0.792670000000     0.0611723  
C92      C      0.467080000000     0.025190000000     0.850080000000    -0.0316822  
C93      C      0.490100000000     0.015270000000     0.718850000000     0.0626764  
C94      C      0.507260000000     0.983420000000     0.666180000000    -0.0359925  
C95      C      0.514170000000     0.039490000000     0.733270000000    -0.0561905  
C96      C      0.493590000000     0.973640000000     0.629360000000     0.0211474  
C97      C      0.473760000000     0.037740000000     0.623360000000    -0.00071545 
C98      C      0.474660000000     0.996680000000     0.778260000000    -0.0553404  
C99      C      0.460180000000     0.954410000000     0.632330000000     0.0520253  
C100     C      0.467790000000     0.973940000000     0.159540000000    -0.0306376  
C101     C      0.510610000000     0.012000000000     0.343490000000    -0.0322886  
C102     C      0.474750000000     0.958920000000     0.385880000000    -0.0018356  
C103     C      0.497500000000     0.021930000000     0.380310000000    -0.000331464
C104     C      0.473800000000     0.004550000000     0.267950000000    -0.053119   
C105     C      0.516960000000     0.952520000000     0.239250000000    -0.0538382  
C106     C      0.491900000000     0.981700000000     0.290570000000     0.060665   
C107     C      0.488140000000     0.952590000000     0.348430000000    -0.0319667  
C108     C      0.497830000000     0.974530000000     0.216660000000     0.0626709  
C109     C      0.529360000000     0.990050000000     0.163440000000    -0.0361192  
C110     C      0.477250000000     0.001620000000     0.231390000000    -0.0564492  
C111     C      0.536520000000     0.977440000000     0.125560000000     0.02139    
C112     C      0.472010000000     0.960930000000     0.121670000000    -0.00243455 
C113     C      0.514670000000     0.956420000000     0.275840000000    -0.0548189  
C114     C      0.552760000000     0.942250000000     0.125970000000     0.053468   
C115     C      0.024950000000     0.505090000000     0.650070000000    -0.0321846  
C116     C      0.002140000000     0.550970000000     0.836370000000    -0.0316057  
C117     C      0.008400000000     0.480980000000     0.867950000000    -0.000245274
C118     C      0.991650000000     0.546230000000     0.875120000000    -0.00234291 
C119     C      0.976730000000     0.498380000000     0.758630000000    -0.0534254  
C120     C      0.019660000000     0.547050000000     0.724270000000    -0.0533538  
C121     C      0.997800000000     0.521000000000     0.778770000000     0.0605514  
C122     C      0.019560000000     0.490250000000     0.830370000000    -0.0321824  
C123     C      0.997900000000     0.525010000000     0.704200000000     0.0616395  
C124     C      0.964130000000     0.523750000000     0.648990000000    -0.035398   
C125     C      0.977260000000     0.499720000000     0.721790000000    -0.056185   
C126     C      0.966160000000     0.533920000000     0.609820000000     0.0198375  
C127     C      0.030310000000     0.515410000000     0.611370000000     6.16175e-05
C128     C      0.020220000000     0.544700000000     0.761130000000    -0.0553578  
C129     C      0.969020000000     0.572430000000     0.606180000000     0.0478882  
C130     C      0.011920000000     0.485390000000     0.331550000000    -0.0323822  
C131     C      0.978040000000     0.446880000000     0.145930000000    -0.0324931  
C132     C      0.984710000000     0.517950000000     0.117410000000    -0.000206723
C133     C      0.967260000000     0.453850000000     0.107590000000    -0.00156432 
C134     C      0.955660000000     0.495480000000     0.227160000000    -0.0530727  
C135     C      0.000890000000     0.446170000000     0.257320000000    -0.0524317  
C136     C      0.975910000000     0.473920000000     0.205080000000     0.061258   
C137     C      0.995950000000     0.507400000000     0.154640000000    -0.0327375  
C138     C      0.980230000000     0.467380000000     0.279380000000     0.0619633  
C139     C      0.950870000000     0.468420000000     0.337210000000    -0.0358016  
C140     C      0.958260000000     0.492900000000     0.263840000000    -0.0556231  
C141     C      0.955750000000     0.457380000000     0.375900000000     0.0204543  
C142     C      0.020080000000     0.474040000000     0.369440000000     0.000581757
C143     C      0.999380000000     0.449790000000     0.220620000000    -0.0555855  
C144     C      0.957790000000     0.418750000000     0.378590000000     0.0476613  
C145     C      0.150570000000     0.986820000000     0.527580000000    -0.0317094  
C146     C      0.333960000000     0.024710000000     0.483990000000    -0.0323193  
C147     C      0.371120000000     0.970810000000     0.524210000000    -0.00263598 
C148     C      0.370990000000     0.032430000000     0.497450000000    -0.000464522
C149     C      0.256860000000     0.020860000000     0.522140000000    -0.053359   
C150     C      0.227890000000     0.972720000000     0.474620000000    -0.0538562  
C151     C      0.279030000000     0.998880000000     0.502560000000     0.0609726  
C152     C      0.333910000000     0.966430000000     0.510100000000    -0.0313982  
C153     C      0.205700000000     0.993330000000     0.495610000000     0.0623095  
C154     C      0.151120000000     0.012470000000     0.468980000000    -0.0356018  
C155     C      0.220520000000     0.018680000000     0.518300000000    -0.0564316  
C156     C      0.113740000000     0.999560000000     0.461070000000     0.0209212  
C157     C      0.113260000000     0.973100000000     0.523090000000    -0.000819751
C158     C      0.264260000000     0.975840000000     0.477490000000    -0.0552829  
C159     C      0.114930000000     0.968060000000     0.438390000000     0.0509773  
C160     C      0.650360000000     0.030250000000     0.507880000000    -0.0314546  
C161     C      0.832630000000     0.980860000000     0.472700000000    -0.0324603  
C162     C      0.873230000000     0.010980000000     0.530590000000    -0.0021988  
C163     C      0.870180000000     0.993230000000     0.465670000000    -0.000747488
C164     C      0.758480000000     0.020580000000     0.480430000000    -0.0531332  
C165     C      0.726350000000     0.974370000000     0.527750000000    -0.0537027  
C166     C      0.779330000000     0.999250000000     0.502130000000     0.0609363  
C167     C      0.835370000000     0.998490000000     0.534030000000    -0.0318219  
C168     C      0.705530000000     0.996840000000     0.507200000000     0.0622281  
C169     C      0.650700000000     0.968650000000     0.491210000000    -0.0359798  
C170     C      0.721940000000     0.018940000000     0.482290000000    -0.055959   
C171     C      0.613370000000     0.962780000000     0.505240000000     0.0212963  
C172     C      0.612890000000     0.028080000000     0.521880000000    -0.000821568
C173     C      0.762830000000     0.974920000000     0.524790000000    -0.0548799  
C174     C      0.614620000000     0.945130000000     0.539840000000     0.0517006  
C175     C      0.027700000000     0.650110000000     0.467810000000    -0.0317806  
C176     C      0.980280000000     0.832100000000     0.508830000000    -0.032477   
C177     C      0.012780000000     0.876780000000     0.455410000000    -0.00251906 
C178     C      0.991720000000     0.869370000000     0.518940000000    -0.000563696
C179     C      0.020860000000     0.758580000000     0.498630000000    -0.0528855  
C180     C      0.975960000000     0.728990000000     0.448570000000    -0.0536089  
C181     C      0.000620000000     0.780730000000     0.477180000000     0.0616801  
C182     C      0.001080000000     0.838900000000     0.448870000000    -0.0310966  
C183     C      0.996990000000     0.706890000000     0.469280000000     0.062818   
C184     C      0.966700000000     0.653470000000     0.485910000000    -0.0370035  
C185     C      0.018610000000     0.722020000000     0.495350000000    -0.0555921  
C186     C      0.959250000000     0.615840000000     0.473140000000     0.0226973  
C187     C      0.023410000000     0.612240000000     0.454830000000    -0.00023806 
C188     C      0.977110000000     0.765500000000     0.452880000000    -0.0550558  
C189     C      0.941830000000     0.616560000000     0.438470000000     0.0506353  
C190     C      0.985130000000     0.154410000000     0.475680000000    -0.0317181  
C191     C      0.020050000000     0.337120000000     0.526460000000    -0.0319708  
C192     C      0.958850000000     0.374400000000     0.498980000000    -0.00254797 
C193     C      0.024980000000     0.374490000000     0.512170000000    -9.17464e-05
C194     C      0.013650000000     0.261890000000     0.487990000000    -0.0528304  
C195     C      0.969600000000     0.227620000000     0.535780000000    -0.053763   
C196     C      0.992330000000     0.281890000000     0.510470000000     0.0615502  
C197     C      0.958240000000     0.336750000000     0.513020000000    -0.0306326  
C198     C      0.989350000000     0.207690000000     0.511840000000     0.0624461  
C199     C      0.008330000000     0.151250000000     0.535160000000    -0.0357621  
C200     C      0.012850000000     0.225140000000     0.489110000000    -0.0560192  
C201     C      0.995470000000     0.113180000000     0.540060000000     0.0211388  
C202     C      0.971660000000     0.116620000000     0.477090000000    -0.000779709
C203     C      0.971520000000     0.264360000000     0.535710000000    -0.055094   
C204     C      0.963230000000     0.112730000000     0.561460000000     0.0510103  
H1       H      0.782990000000     0.461520000000     0.019180000000     0.0413355  
H2       H      0.671220000000     0.515640000000     0.037530000000     0.0350981  
H3       H      0.665760000000     0.477610000000     0.932430000000     0.0398733  
H4       H      0.873140000000     0.551560000000     0.961750000000     0.035782   
H5       H      0.619900000000     0.478880000000     0.036810000000     0.0449541  
H6       H      0.824540000000     0.451050000000     0.953490000000     0.0354766  
H7       H      0.821840000000     0.552960000000     0.999300000000     0.0340196  
H8       H      0.889850000000     0.448550000000     0.962470000000     0.0388865  
H9       H      0.599860000000     0.487990000000     0.933150000000     0.0369582  
H10      H      0.719210000000     0.456490000000     0.022930000000     0.0480437  
H11      H      0.605800000000     0.523920000000     0.038210000000     0.0378964  
H12      H      0.772110000000     0.541910000000     0.939470000000     0.0438282  
H13      H      0.655250000000     0.543400000000     0.002470000000     0.0370965  
H14      H      0.887030000000     0.551630000000     0.007070000000     0.0370549  
H15      H      0.838480000000     0.456960000000     0.998650000000     0.0373313  
H16      H      0.836660000000     0.515920000000     0.025090000000     0.0382974  
H17      H      0.708360000000     0.539140000000     0.945550000000     0.0404018  
H18      H      0.651470000000     0.521440000000     0.942920000000     0.0364216  
H19      H      0.875680000000     0.480870000000     0.931140000000     0.0346921  
H20      H      0.280880000000     0.460230000000     0.044000000000     0.0406843  
H21      H      0.165940000000     0.550050000000     0.027730000000     0.0350057  
H22      H      0.168800000000     0.444810000000     0.989980000000     0.0382598  
H23      H      0.376330000000     0.544000000000     0.027090000000     0.0343621  
H24      H      0.114340000000     0.522810000000     0.052030000000     0.0381916  
H25      H      0.319440000000     0.481010000000     0.950390000000     0.0335239  
H26      H      0.325380000000     0.519970000000     0.055080000000     0.0346322  
H27      H      0.384790000000     0.472200000000     0.949930000000     0.0360256  
H28      H      0.103250000000     0.446490000000     0.981020000000     0.0351099  
H29      H      0.217040000000     0.458700000000     0.049050000000     0.0478699  
H30      H      0.100790000000     0.552220000000     0.017740000000     0.0383508  
H31      H      0.272620000000     0.539240000000     0.962560000000     0.0433509  
H32      H      0.152420000000     0.540360000000     0.983080000000     0.0362383  
H33      H      0.390790000000     0.508910000000     0.055060000000     0.0383402  
H34      H      0.334960000000     0.453200000000     0.985610000000     0.0376641  
H35      H      0.338440000000     0.475290000000     0.045390000000     0.0363457  
H36      H      0.208770000000     0.535290000000     0.965350000000     0.0401749  
H37      H      0.154010000000     0.479800000000     0.961830000000     0.0381482  
H38      H      0.371090000000     0.517390000000     0.951430000000     0.0365424  
H39      H      0.539470000000     0.710770000000     0.009380000000     0.0411229  
H40      H      0.553970000000     0.826880000000     0.965090000000     0.0345492  
H41      H      0.447060000000     0.825260000000     0.995820000000     0.0395028  
H42      H      0.469550000000     0.617410000000     0.931570000000     0.0361404  
H43      H      0.549210000000     0.874450000000     0.006610000000     0.0435161  
H44      H      0.472920000000     0.674820000000     0.028100000000     0.0357893  
H45      H      0.509430000000     0.666310000000     0.922670000000     0.0339349  
H46      H      0.476710000000     0.609460000000     0.035350000000     0.0388359  
H47      H      0.446060000000     0.892140000000     0.992610000000     0.0368426  
H48      H      0.543120000000     0.774800000000     0.014790000000     0.0466502  
H49      H      0.552370000000     0.893450000000     0.963420000000     0.0362153  
H50      H      0.454030000000     0.721850000000     0.935660000000     0.0438308  
H51      H      0.520470000000     0.844500000000     0.936660000000     0.0373011  
H52      H      0.513430000000     0.600290000000     0.929320000000     0.0359818  
H53      H      0.516030000000     0.656940000000     0.019770000000     0.0377589  
H54      H      0.537380000000     0.652750000000     0.958570000000     0.0379479  
H55      H      0.460060000000     0.785880000000     0.938250000000     0.040389   
H56      H      0.460150000000     0.844350000000     0.954470000000     0.0366556  
H57      H      0.444820000000     0.623420000000     0.003630000000     0.0340749  
H58      H      0.545050000000     0.211610000000     0.985130000000     0.0410079  
H59      H      0.491020000000     0.318160000000     0.963990000000     0.0343408  
H60      H      0.520920000000     0.333360000000     0.070760000000     0.0397931  
H61      H      0.460440000000     0.120500000000     0.052600000000     0.0355735  
H62      H      0.524490000000     0.371820000000     0.963510000000     0.0446553  
H63      H      0.560610000000     0.167460000000     0.043220000000     0.0353169  
H64      H      0.452760000000     0.172410000000     0.016110000000     0.0334015  
H65      H      0.560300000000     0.101890000000     0.033100000000     0.0388135  
H66      H      0.505730000000     0.398600000000     0.064390000000     0.0368847  
H67      H      0.547360000000     0.275570000000     0.980180000000     0.0471308  
H68      H      0.479130000000     0.382800000000     0.957790000000     0.0373257  
H69      H      0.469020000000     0.220840000000     0.068970000000     0.0432828  
H70      H      0.460210000000     0.334690000000     0.995950000000     0.0370751  
H71      H      0.451230000000     0.107290000000     0.007980000000     0.036889   
H72      H      0.546680000000     0.154290000000     0.999570000000     0.0373227  
H73      H      0.484270000000     0.157350000000     0.984040000000     0.0382285  
H74      H      0.468840000000     0.284670000000     0.061680000000     0.0402083  
H75      H      0.477290000000     0.343650000000     0.056220000000     0.0362912  
H76      H      0.534070000000     0.116110000000     0.069640000000     0.0343052  
H77      H      0.459840000000     0.979020000000     0.794920000000     0.0409992  
H78      H      0.471680000000     0.064990000000     0.673280000000     0.0347801  
H79      H      0.507260000000     0.959490000000     0.683240000000     0.0396246  
H80      H      0.476700000000     0.066870000000     0.887420000000     0.0336641  
H81      H      0.444760000000     0.035050000000     0.624570000000     0.0381154  
H82      H      0.552290000000     0.008110000000     0.829840000000     0.0342343  
H83      H      0.446350000000     0.041530000000     0.837470000000     0.0345122  
H84      H      0.555080000000     0.000370000000     0.895240000000     0.0372416  
H85      H      0.512990000000     0.955540000000     0.617030000000     0.0394196  
H86      H      0.453090000000     0.974100000000     0.731110000000     0.0482137  
H87      H      0.479560000000     0.061540000000     0.607290000000     0.0384429  
H88      H      0.534650000000     0.063060000000     0.780450000000     0.0436558  
H89      H      0.515220000000     0.052960000000     0.658850000000     0.0364762  
H90      H      0.447880000000     0.033030000000     0.903100000000     0.0382954  
H91      H      0.519540000000     0.977950000000     0.846110000000     0.0385289  
H92      H      0.457910000000     0.997380000000     0.851080000000     0.0373556  
H93      H      0.530490000000     0.055740000000     0.716580000000     0.0406827  
H94      H      0.534920000000     0.992640000000     0.664200000000     0.0409247  
H95      H      0.547930000000     0.045260000000     0.881790000000     0.0357806  
H96      H      0.530190000000     0.939180000000     0.292300000000     0.0411159  
H97      H      0.446380000000     0.958680000000     0.172350000000     0.036509   
H98      H      0.553780000000     0.987450000000     0.179390000000     0.0385947  
H99      H      0.445880000000     0.962850000000     0.384820000000     0.0348885  
H100     H      0.474790000000     0.931790000000     0.122190000000     0.0478039  
H101     H      0.511010000000     0.036320000000     0.327060000000     0.0335592  
H102     H      0.471310000000     0.932300000000     0.335710000000     0.0351931  
H103     H      0.517170000000     0.039540000000     0.392900000000     0.036419   
H104     H      0.555670000000     0.995980000000     0.113500000000     0.0355608  
H105     H      0.533770000000     0.932270000000     0.228350000000     0.0488679  
H106     H      0.447660000000     0.967060000000     0.106780000000     0.0416884  
H107     H      0.456970000000     0.024810000000     0.278820000000     0.043281   
H108     H      0.460030000000     0.002180000000     0.158610000000     0.0368643  
H109     H      0.479620000000     0.934780000000     0.401760000000     0.0392687  
H110     H      0.537910000000     0.001670000000     0.345060000000     0.0381769  
H111     H      0.515380000000     0.942200000000     0.350110000000     0.0368642  
H112     H      0.463290000000     0.020150000000     0.214930000000     0.0404948  
H113     H      0.522220000000     0.018510000000     0.163050000000     0.0387348  
H114     H      0.472670000000     0.037050000000     0.377640000000     0.0360394  
H115     H      0.037810000000     0.561780000000     0.775520000000     0.0402615  
H116     H      0.050530000000     0.507870000000     0.663930000000     0.0339775  
H117     H      0.943960000000     0.540120000000     0.662530000000     0.0396931  
H118     H      0.983160000000     0.466350000000     0.866860000000     0.0371796  
H119     H      0.043010000000     0.541750000000     0.610320000000     0.0399255  
H120     H      0.985990000000     0.572490000000     0.824840000000     0.0346365  
H121     H      0.017440000000     0.465990000000     0.813980000000     0.0333211  
H122     H      0.001920000000     0.568950000000     0.890510000000     0.0377409  
H123     H      0.941070000000     0.525950000000     0.597230000000     0.0376223  
H124     H      0.036460000000     0.565980000000     0.711200000000     0.0455495  
H125     H      0.048530000000     0.496130000000     0.599060000000     0.0365188  
H126     H      0.960040000000     0.479320000000     0.771660000000     0.0434617  
H127     H      0.016700000000     0.477000000000     0.651840000000     0.037661   
H128     H      0.028270000000     0.462910000000     0.879550000000     0.0356404  
H129     H      0.030160000000     0.559110000000     0.835300000000     0.0353012  
H130     H      0.047470000000     0.498880000000     0.830000000000     0.0371804  
H131     H      0.961180000000     0.481230000000     0.707380000000     0.0403657  
H132     H      0.955420000000     0.495800000000     0.650410000000     0.0373543  
H133     H      0.962580000000     0.547270000000     0.877030000000     0.0353278  
H134     H      0.016420000000     0.433510000000     0.204720000000     0.0421956  
H135     H      0.036240000000     0.482260000000     0.315610000000     0.0348306  
H136     H      0.929220000000     0.452890000000     0.325070000000     0.040441   
H137     H      0.958580000000     0.530850000000     0.118810000000     0.0361684  
H138     H      0.031930000000     0.447290000000     0.368890000000     0.0401372  
H139     H      0.961630000000     0.425080000000     0.156530000000     0.0357491  
H140     H      0.993590000000     0.531020000000     0.171900000000     0.0342575  
H141     H      0.975110000000     0.430830000000     0.091260000000     0.0401449  
H142     H      0.931990000000     0.465770000000     0.390660000000     0.0387879  
H143     H      0.018640000000     0.427060000000     0.268760000000     0.0461232  
H144     H      0.039870000000     0.492460000000     0.380560000000     0.0373888  
H145     H      0.938170000000     0.514860000000     0.215760000000     0.044202   
H146     H      0.004370000000     0.513740000000     0.331040000000     0.0399345  
H147     H      0.003710000000     0.537710000000     0.107210000000     0.0377125  
H148     H      0.005930000000     0.438270000000     0.146130000000     0.0393487  
H149     H      0.023930000000     0.498990000000     0.154630000000     0.0403001  
H150     H      0.942860000000     0.510750000000     0.279730000000     0.042084   
H151     H      0.942910000000     0.496630000000     0.337040000000     0.0399998  
H152     H      0.938200000000     0.455730000000     0.106380000000     0.0349013  
H153     H      0.280590000000     0.959580000000     0.460800000000     0.0411676  
H154     H      0.164780000000     0.969050000000     0.546050000000     0.0354988  
H155     H      0.166100000000     0.014680000000     0.443820000000     0.0386584  
H156     H      0.369670000000     0.977020000000     0.552850000000     0.0391703  
H157     H      0.114460000000     0.944460000000     0.517010000000     0.038442   
H158     H      0.319530000000     0.050130000000     0.482050000000     0.0338888  
H159     H      0.319390000000     0.948210000000     0.527880000000     0.0363562  
H160     H      0.385160000000     0.047980000000     0.477060000000     0.0365821  
H161     H      0.100010000000     0.020650000000     0.446090000000     0.035516   
H162     H      0.216880000000     0.953870000000     0.456240000000     0.048304   
H163     H      0.099360000000     0.975950000000     0.548720000000     0.0389477  
H164     H      0.267850000000     0.039500000000     0.540730000000     0.0439769  
H165     H      0.149280000000     0.013540000000     0.539620000000     0.0364513  
H166     H      0.385020000000     0.945200000000     0.521580000000     0.0419658  
H167     H      0.335230000000     0.012860000000     0.457110000000     0.0380654  
H168     H      0.335420000000     0.954230000000     0.483430000000     0.0370594  
H169     H      0.204190000000     0.036090000000     0.533770000000     0.0404301  
H170     H      0.149990000000     0.039300000000     0.480860000000     0.0380966  
H171     H      0.369110000000     0.048950000000     0.521620000000     0.0364438  
H172     H      0.777860000000     0.956970000000     0.540950000000     0.0411748  
H173     H      0.664560000000     0.051080000000     0.522810000000     0.0352136  
H174     H      0.665550000000     0.943390000000     0.492580000000     0.0384921  
H175     H      0.873350000000     0.040220000000     0.528840000000     0.0393866  
H176     H      0.613850000000     0.026750000000     0.551180000000     0.0384047  
H177     H      0.817570000000     0.983120000000     0.447630000000     0.0339926  
H178     H      0.822320000000     0.014220000000     0.555050000000     0.0366831  
H179     H      0.882910000000     0.974360000000     0.447210000000     0.0367987  
H180     H      0.599640000000     0.944830000000     0.486610000000     0.035666   
H181     H      0.714140000000     0.956460000000     0.546300000000     0.048299   
H182     H      0.599020000000     0.052850000000     0.514800000000     0.0384326  
H183     H      0.770690000000     0.038720000000     0.462120000000     0.0439667  
H184     H      0.649310000000     0.038050000000     0.479570000000     0.0360179  
H185     H      0.887540000000     0.003710000000     0.555090000000     0.0418637  
H186     H      0.832610000000     0.952660000000     0.480820000000     0.0383754  
H187     H      0.835610000000     0.970340000000     0.542260000000     0.0370707  
H188     H      0.706860000000     0.035670000000     0.464910000000     0.0404135  
H189     H      0.649580000000     0.976530000000     0.462900000000     0.0385994  
H190     H      0.869270000000     0.019340000000     0.452400000000     0.0371979  
H191     H      0.960000000000     0.781540000000     0.436810000000     0.0412591  
H192     H      0.048540000000     0.663110000000     0.451910000000     0.0356039  
H193     H      0.942120000000     0.669290000000     0.484380000000     0.0403091  
H194     H      0.041740000000     0.877110000000     0.458750000000     0.0397628  
H195     H      0.020210000000     0.612700000000     0.425670000000     0.0382774  
H196     H      0.981330000000     0.815420000000     0.532980000000     0.0347092  
H197     H      0.018030000000     0.827290000000     0.427970000000     0.0364037  
H198     H      0.971830000000     0.880750000000     0.537140000000     0.0370511  
H199     H      0.940740000000     0.603620000000     0.492240000000     0.0386463  
H200     H      0.958360000000     0.717740000000     0.429170000000     0.0482835  
H201     H      0.047900000000     0.597490000000     0.460640000000     0.0389993  
H202     H      0.038330000000     0.769810000000     0.518160000000     0.0446924  
H203     H      0.036300000000     0.649240000000     0.495860000000     0.0389061  
H204     H      0.006650000000     0.892640000000     0.431520000000     0.0418807  
H205     H      0.952700000000     0.832370000000     0.499170000000     0.0386071  
H206     H      0.973570000000     0.839380000000     0.439110000000     0.0368077  
H207     H      0.034140000000     0.705900000000     0.512910000000     0.0422532  
H208     H      0.974880000000     0.652840000000     0.514140000000     0.0446914  
H209     H      0.016980000000     0.867840000000     0.533510000000     0.037255   
H210     H      0.955760000000     0.278790000000     0.554490000000     0.0408871  
H211     H      0.968070000000     0.169760000000     0.457480000000     0.0359983  
H212     H      0.009460000000     0.164600000000     0.561340000000     0.0382553  
H213     H      0.956490000000     0.373580000000     0.469720000000     0.0424278  
H214     H      0.942930000000     0.117230000000     0.482040000000     0.0384674  
H215     H      0.045320000000     0.322760000000     0.523420000000     0.0336399  
H216     H      0.936830000000     0.322160000000     0.499430000000     0.0365577  
H217     H      0.042970000000     0.389110000000     0.530050000000     0.035184   
H218     H      0.015940000000     0.098530000000     0.554950000000     0.0351557  
H219     H      0.952210000000     0.214560000000     0.554200000000     0.0481467  
H220     H      0.975660000000     0.104380000000     0.450740000000     0.0391123  
H221     H      0.030580000000     0.274930000000     0.469130000000     0.0451217  
H222     H      0.012200000000     0.154060000000     0.464730000000     0.036665   
H223     H      0.935300000000     0.388410000000     0.509110000000     0.0398772  
H224     H      0.013550000000     0.337970000000     0.555110000000     0.0371987  
H225     H      0.952250000000     0.337530000000     0.541780000000     0.03573    
H226     H      0.029680000000     0.210670000000     0.471320000000     0.0407894  
H227     H      0.035460000000     0.151080000000     0.524270000000     0.0382493  
H228     H      0.037950000000     0.372920000000     0.485920000000     0.0394769  
N1       N      0.597530000000     0.496950000000     0.989040000000    -0.180546   
N2       N      0.671260000000     0.491860000000     0.986640000000    -0.109625   
N3       N      0.820000000000     0.503590000000     0.972730000000    -0.112873   
N4       N      0.893680000000     0.502790000000     0.979070000000    -0.181135   
N5       N      0.613030000000     0.406820000000     0.963370000000    -0.102314   
N6       N      0.096570000000     0.496700000000     0.006110000000    -0.181642   
N7       N      0.170280000000     0.496020000000     0.013140000000    -0.110425   
N8       N      0.319470000000     0.504950000000     0.001240000000    -0.112669   
N9       N      0.393060000000     0.498840000000     0.999190000000    -0.180832   
N10      N      0.115310000000     0.425260000000     0.065640000000    -0.109641   
N11      N      0.501940000000     0.897090000000     0.988170000000    -0.180961   
N12      N      0.501990000000     0.822910000000     0.985240000000    -0.109619   
N13      N      0.487840000000     0.673940000000     0.973880000000    -0.112864   
N14      N      0.489500000000     0.599960000000     0.980600000000    -0.181102   
N15      N      0.471500000000     0.870760000000     0.074020000000    -0.107135   
N16      N      0.501590000000     0.396430000000     0.007980000000    -0.180466   
N17      N      0.511180000000     0.323150000000     0.016230000000    -0.109471   
N18      N      0.505880000000     0.173300000000     0.033510000000    -0.112793   
N19      N      0.504260000000     0.099310000000     0.025800000000    -0.181089   
N20      N      0.589550000000     0.389630000000     0.042100000000    -0.102235   
N21      N      0.488400000000     0.005390000000     0.607300000000    -0.181611   
N22      N      0.484930000000     0.011060000000     0.681280000000    -0.110252   
N23      N      0.500170000000     0.028300000000     0.830270000000    -0.113097   
N24      N      0.503240000000     0.021000000000     0.904140000000    -0.181874   
N25      N      0.429360000000     0.936820000000     0.635020000000    -0.110039   
N26      N      0.503620000000     0.976150000000     0.105010000000    -0.181125   
N27      N      0.500870000000     0.969130000000     0.179010000000    -0.110053   
N28      N      0.486920000000     0.985660000000     0.328210000000    -0.112734   
N29      N      0.490780000000     0.990440000000     0.402170000000    -0.181472   
N30      N      0.567570000000     0.909780000000     0.126310000000    -0.105986   
N31      N      0.996560000000     0.517130000000     0.592320000000    -0.181891   
N32      N      0.998560000000     0.528280000000     0.666100000000    -0.110356   
N33      N      0.996440000000     0.517960000000     0.816870000000    -0.112415   
N34      N      0.003700000000     0.512460000000     0.890460000000    -0.180556   
N35      N      0.971760000000     0.607870000000     0.602670000000    -0.109951   
N36      N      0.987930000000     0.472980000000     0.391140000000    -0.181452   
N37      N      0.983670000000     0.463300000000     0.317250000000    -0.110006   
N38      N      0.973150000000     0.478940000000     0.167260000000    -0.112365   
N39      N      0.982220000000     0.487060000000     0.093820000000    -0.180342   
N40      N      0.959790000000     0.383180000000     0.381200000000    -0.108884   
N41      N      0.094620000000     0.991110000000     0.493980000000    -0.18213    
N42      N      0.168350000000     0.987700000000     0.493140000000    -0.110547   
N43      N      0.316330000000     0.000910000000     0.508780000000    -0.11257    
N44      N      0.389990000000     0.999690000000     0.506230000000    -0.180998   
N45      N      0.115970000000     0.938970000000     0.417650000000    -0.11026    
N46      N      0.594250000000     0.996530000000     0.508690000000    -0.182059   
N47      N      0.667960000000     0.996040000000     0.512310000000    -0.110314   
N48      N      0.817010000000     0.003090000000     0.500190000000    -0.112167   
N49      N      0.890440000000     0.996670000000     0.498710000000    -0.180861   
N50      N      0.615760000000     0.928990000000     0.571750000000    -0.109545   
N51      N      0.992130000000     0.595380000000     0.470530000000    -0.181929   
N52      N      0.994330000000     0.669270000000     0.464030000000    -0.110121   
N53      N      0.004070000000     0.818390000000     0.481680000000    -0.1124     
N54      N      0.996620000000     0.891840000000     0.487510000000    -0.180948   
N55      N      0.925900000000     0.617230000000     0.406480000000    -0.109112   
N56      N      0.988540000000     0.096140000000     0.505630000000    -0.18215    
N57      N      0.984460000000     0.169940000000     0.511250000000    -0.110377   
N58      N      0.992190000000     0.319760000000     0.506310000000    -0.111579   
N59      N      0.991400000000     0.393530000000     0.508160000000    -0.180499   
N60      N      0.933470000000     0.112280000000     0.581030000000    -0.110349   
O1       O      0.995010000000     0.946920000000     0.462790000000    -0.557175   
O2       O      0.988850000000     0.046140000000     0.471670000000    -0.559013   
O3       O      0.041630000000     0.999290000000     0.466460000000    -0.55383    
O4       O      0.942220000000     0.993710000000     0.468030000000    -0.556201   
O5       O      0.943530000000     0.993920000000     0.526900000000    -0.557152   
O6       O      0.042700000000     0.988990000000     0.524410000000    -0.55944    
O7       O      0.995320000000     0.041210000000     0.529980000000    -0.554227   
O8       O      0.990960000000     0.941660000000     0.521300000000    -0.556847   
O9       O      0.021480000000     0.543480000000     0.480400000000    -0.556528   
O10      O      0.021210000000     0.445480000000     0.500530000000    -0.555999   
O11      O      0.019290000000     0.484880000000     0.441450000000    -0.5555     
O12      O      0.023500000000     0.504150000000     0.539720000000    -0.555898   
O13      O      0.965080000000     0.505700000000     0.541930000000    -0.556946   
O14      O      0.960860000000     0.484770000000     0.443990000000    -0.555318   
O15      O      0.962750000000     0.446280000000     0.502590000000    -0.560037   
O16      O      0.963070000000     0.544110000000     0.483110000000    -0.557602   
O17      O      0.489550000000     0.965070000000     0.457100000000    -0.558787   
O18      O      0.493650000000     0.972450000000     0.556830000000    -0.554013   
O19      O      0.442080000000     0.969660000000     0.509110000000    -0.556746   
O20      O      0.541420000000     0.967890000000     0.505080000000    -0.555309   
O21      O      0.542130000000     0.026630000000     0.505860000000    -0.557877   
O22      O      0.442870000000     0.027640000000     0.499530000000    -0.556794   
O23      O      0.489290000000     0.030880000000     0.552370000000    -0.5575     
O24      O      0.495500000000     0.023360000000     0.452700000000    -0.557452   
O25      O      0.532740000000     0.988400000000     0.053500000000    -0.55435    
O26      O      0.532540000000     0.008090000000     0.955330000000    -0.557825   
O27      O      0.533160000000     0.047300000000     0.014770000000    -0.554422   
O28      O      0.532060000000     0.949180000000     0.994260000000    -0.551835   
O29      O      0.473570000000     0.949950000000     0.994990000000    -0.557116   
O30      O      0.474690000000     0.047910000000     0.014670000000    -0.558779   
O31      O      0.474080000000     0.009550000000     0.955790000000    -0.559836   
O32      O      0.474260000000     0.988350000000     0.053600000000    -0.558139   
O33      O      0.987600000000     0.464330000000     0.037770000000    -0.552716   
O34      O      0.001830000000     0.476850000000     0.939300000000    -0.556301   
O35      O      0.044130000000     0.469120000000     0.995090000000    -0.553169   
O36      O      0.945550000000     0.472170000000     0.981260000000    -0.555915   
O37      O      0.945900000000     0.529990000000     0.991750000000    -0.556432   
O38      O      0.044960000000     0.527540000000     0.001320000000    -0.556679   
O39      O      0.999800000000     0.535140000000     0.946620000000    -0.555243   
O40      O      0.990900000000     0.522470000000     0.045630000000    -0.557572   
O41      O      0.499490000000     0.452820000000     0.030010000000    -0.554598   
O42      O      0.493830000000     0.551660000000     0.016500000000    -0.559304   
O43      O      0.447050000000     0.500710000000     0.025940000000    -0.55681    
O44      O      0.546440000000     0.504360000000     0.020370000000    -0.554113   
O45      O      0.543510000000     0.493800000000     0.962530000000    -0.554855   
O46      O      0.444130000000     0.493850000000     0.967530000000    -0.55589    
O47      O      0.493640000000     0.543830000000     0.958140000000    -0.553052   
O48      O      0.494300000000     0.444550000000     0.971950000000    -0.553441   
V1       V      0.991880000000     0.996730000000     0.464840000000     1.39495    
V2       V      0.993170000000     0.991230000000     0.528040000000     1.39653    
V3       V      0.023710000000     0.494480000000     0.490490000000     1.38845    
V4       V      0.960630000000     0.495240000000     0.493060000000     1.40404    
V5       V      0.491700000000     0.966370000000     0.507140000000     1.40149    
V6       V      0.492550000000     0.029520000000     0.502370000000     1.39028    
V7       V      0.534970000000     0.998240000000     0.004400000000     1.38791    
V8       V      0.471840000000     0.998970000000     0.004710000000     1.39982    
V9       V      0.994780000000     0.468270000000     0.988130000000     1.38909    
V10      V      0.995480000000     0.531120000000     0.996560000000     1.39026    
V11      V      0.496840000000     0.502660000000     0.025530000000     1.39488    
V12      V      0.493750000000     0.493750000000     0.962690000000     1.38626    


