data_structure

_audit_creation_method RASPA-1.0
_audit_creation_date 2023-5-25
_audit_author_name 'Poobodin Mano'

_cell_length_a    37.9616
_cell_length_b    37.8961
_cell_length_c    37.8449
_cell_angle_alpha 90
_cell_angle_beta  90
_cell_angle_gamma 90
_cell_volume      54443.5

_symmetry_cell_setting          triclinic
_symmetry_space_group_name_Hall 'P 1'
_symmetry_space_group_name_H-M  'P 1'
_symmetry_Int_Tables_number     1

_symmetry_equiv_pos_as_xyz 'x,y,z'

loop_
_atom_site_label
_atom_site_type_symbol
_atom_site_fract_x
_atom_site_fract_y
_atom_site_fract_z
_atom_site_charge
C1       C      0.987800000000     0.076750000000     0.474160000000     0.474704   
C2       C      0.005770000000     0.945070000000     0.488380000000     0.473462   
C3       C      0.930860000000     0.004250000000     0.487220000000     0.474308   
C4       C      0.063030000000     0.018790000000     0.475300000000     0.475859   
C5       C      0.999070000000     0.505940000000     0.565880000000     0.475823   
C6       C      0.007200000000     0.516010000000     0.432620000000     0.473021   
C7       C      0.000250000000     0.444110000000     0.494100000000     0.475741   
C8       C      0.006140000000     0.577170000000     0.505200000000     0.47558    
C9       C      0.562240000000     0.995390000000     0.507610000000     0.474217   
C10      C      0.429100000000     0.994680000000     0.497220000000     0.473164   
C11      C      0.501930000000     0.002630000000     0.435780000000     0.475947   
C12      C      0.490780000000     0.987390000000     0.568380000000     0.474309   
C13      C      0.495210000000     0.000340000000     0.066540000000     0.472124   
C14      C      0.480630000000     0.972570000000     0.936320000000     0.473871   
C15      C      0.490540000000     0.052300000000     0.986980000000     0.474993   
C16      C      0.485460000000     0.921630000000     0.015610000000     0.475196   
C17      C      0.008470000000     0.492320000000     0.064640000000     0.474963   
C18      C      0.982120000000     0.484640000000     0.933660000000     0.474478   
C19      C      0.060670000000     0.488020000000     0.986040000000     0.475574   
C20      C      0.929620000000     0.488810000000     0.011260000000     0.474002   
C21      C      0.497110000000     0.420520000000     0.996620000000     0.471658   
C22      C      0.491600000000     0.553520000000     0.010600000000     0.471611   
C23      C      0.428240000000     0.486520000000     0.995010000000     0.471914   
C24      C      0.560680000000     0.487330000000     0.012130000000     0.472492   
C25      C      0.838610000000     0.516630000000     0.038060000000    -0.0336145  
C26      C      0.655350000000     0.485690000000     0.987790000000    -0.0316894  
C27      C      0.612410000000     0.488370000000     0.051660000000    -0.00103831 
C28      C      0.617970000000     0.471100000000     0.986890000000    -0.00187218 
C29      C      0.728390000000     0.464610000000     0.045520000000    -0.0547377  
C30      C      0.761340000000     0.515670000000     0.003820000000    -0.0540362  
C31      C      0.707790000000     0.487580000000     0.025140000000     0.0605509  
C32      C      0.650280000000     0.502490000000     0.049430000000    -0.0323589  
C33      C      0.782000000000     0.491090000000     0.022170000000     0.0598743  
C34      C      0.836570000000     0.456130000000     0.018030000000    -0.0451304  
C35      C      0.765160000000     0.466710000000     0.044710000000    -0.0558241  
C36      C      0.873570000000     0.457950000000     0.002010000000     0.0445159  
C37      C      0.875410000000     0.522510000000     0.022500000000     0.000636481
C38      C      0.724610000000     0.514560000000     0.005850000000    -0.0567278  
C39      C      0.154460000000     0.463250000000     0.993890000000    -0.0337131  
C40      C      0.339740000000     0.494640000000     0.951470000000    -0.0319663  
C41      C      0.369390000000     0.481600000000     0.021470000000    -0.000518933
C42      C      0.377960000000     0.505240000000     0.958650000000    -0.00189864 
C43      C      0.259730000000     0.515320000000     0.000940000000    -0.0544264  
C44      C      0.229030000000     0.469850000000     0.951710000000    -0.0544371  
C45      C      0.281410000000     0.494440000000     0.979460000000     0.0604814  
C46      C      0.332120000000     0.471210000000     0.010350000000    -0.032214   
C47      C      0.207390000000     0.491310000000     0.972660000000     0.0602332  
C48      C      0.150870000000     0.522470000000     0.969750000000    -0.0456834  
C49      C      0.223100000000     0.513370000000     0.998150000000    -0.0563324  
C50      C      0.112150000000     0.517550000000     0.959170000000     0.045496   
C51      C      0.116500000000     0.454920000000     0.983300000000     0.000933049
C52      C      0.265650000000     0.470810000000     0.955440000000    -0.0566451  
C53      C      0.508740000000     0.827110000000     0.010470000000    -0.0335656  
C54      C      0.478000000000     0.642200000000     0.052220000000    -0.0318733  
C55      C      0.494260000000     0.612220000000     0.983050000000    -0.000664567
C56      C      0.468810000000     0.603580000000     0.044990000000    -0.002132   
C57      C      0.456750000000     0.721670000000     0.002010000000    -0.0545245  
C58      C      0.500250000000     0.753520000000     0.052230000000    -0.0544242  
C59      C      0.477610000000     0.700440000000     0.023980000000     0.0604183  
C60      C      0.502970000000     0.650100000000     0.993980000000    -0.0324012  
C61      C      0.478970000000     0.774730000000     0.030640000000     0.0600756  
C62      C      0.448150000000     0.831840000000     0.030170000000    -0.0455296  
C63      C      0.457830000000     0.758430000000     0.004730000000    -0.0562648  
C64      C      0.452790000000     0.870820000000     0.040440000000     0.0448421  
C65      C      0.516910000000     0.865070000000     0.021240000000     0.0007573  
C66      C      0.500200000000     0.716820000000     0.048570000000    -0.0566688  
C67      C      0.529220000000     0.141200000000     0.973710000000    -0.0333122  
C68      C      0.484360000000     0.324430000000     0.013700000000    -0.0323337  
C69      C      0.516800000000     0.370040000000     0.960800000000    -0.00197054 
C70      C      0.495550000000     0.361760000000     0.024250000000    -0.0008135  
C71      C      0.525490000000     0.250960000000     0.002950000000    -0.0544822  
C72      C      0.479330000000     0.221510000000     0.953680000000    -0.0544596  
C73      C      0.505090000000     0.273300000000     0.981660000000     0.0602067  
C74      C      0.505430000000     0.331950000000     0.953850000000    -0.0318677  
C75      C      0.500260000000     0.199190000000     0.974470000000     0.06001    
C76      C      0.468710000000     0.147180000000     0.993510000000    -0.0462533  
C77      C      0.522680000000     0.214310000000     0.000010000000    -0.0564339  
C78      C      0.459620000000     0.109370000000     0.982230000000     0.047129   
C79      C      0.523350000000     0.102950000000     0.962100000000    -0.000552586
C80      C      0.481100000000     0.258140000000     0.957620000000    -0.0564679  
C81      C      0.485120000000     0.943880000000     0.657240000000    -0.0331953  
C82      C      0.450200000000     0.982250000000     0.844940000000    -0.0324905  
C83      C      0.504280000000     0.943200000000     0.883170000000    -0.00166844 
C84      C      0.443220000000     0.969780000000     0.882880000000    -0.000969206
C85      C      0.456190000000     0.944220000000     0.766750000000    -0.0548988  
C86      C      0.503800000000     0.993130000000     0.739070000000    -0.054224   
C87      C      0.477120000000     0.964170000000     0.789810000000     0.0606482  
C88      C      0.508940000000     0.956300000000     0.845360000000    -0.0317818  
C89      C      0.484030000000     0.972110000000     0.715930000000     0.060075   
C90      C      0.469890000000     0.005550000000     0.663110000000    -0.0461933  
C91      C      0.459020000000     0.948540000000     0.730150000000    -0.0560434  
C92      C      0.485680000000     0.014960000000     0.627050000000     0.0473885  
C93      C      0.500320000000     0.949250000000     0.620160000000    -0.000633501
C94      C      0.499910000000     0.989860000000     0.775610000000    -0.0566525  
C95      C      0.490810000000     0.036860000000     0.344600000000    -0.0336716  
C96      C      0.536330000000     0.008090000000     0.156990000000    -0.0318479  
C97      C      0.467190000000     0.013520000000     0.123340000000    -0.000270725
C98      C      0.532080000000     0.994040000000     0.119310000000    -0.00168798 
C99      C      0.481150000000     0.990810000000     0.235250000000    -0.0541953  
C100     C      0.532450000000     0.032780000000     0.267360000000    -0.0546005  
C101     C      0.504990000000     0.009530000000     0.214050000000     0.0603133  
C102     C      0.476090000000     0.028010000000     0.159920000000    -0.0321736  
C103     C      0.509680000000     0.012690000000     0.288450000000     0.0602651  
C104     C      0.513510000000     0.977010000000     0.341900000000    -0.0455082  
C105     C      0.482870000000     0.992900000000     0.272030000000    -0.0564693  
C106     C      0.525530000000     0.978050000000     0.380460000000     0.0453298  
C107     C      0.502490000000     0.041160000000     0.383170000000     0.000683975
C108     C      0.529800000000     0.031840000000     0.230500000000    -0.0562648  
C109     C      0.018690000000     0.480970000000     0.659230000000    -0.0334788  
C110     C      0.969910000000     0.517200000000     0.843300000000    -0.0319359  
C111     C      0.980520000000     0.449630000000     0.878570000000    -0.000828792
C112     C      0.955450000000     0.511430000000     0.880500000000    -0.00156027 
C113     C      0.959160000000     0.467120000000     0.762660000000    -0.0546582  
C114     C      0.009280000000     0.514990000000     0.737700000000    -0.0538972  
C115     C      0.978680000000     0.487160000000     0.786840000000     0.0606993  
C116     C      0.994590000000     0.457890000000     0.841510000000    -0.0325398  
C117     C      0.988460000000     0.496330000000     0.713500000000     0.0601098  
C118     C      0.959390000000     0.504220000000     0.656180000000    -0.0454648  
C119     C      0.964390000000     0.471060000000     0.726310000000    -0.0560976  
C120     C      0.965470000000     0.520320000000     0.619580000000     0.0454134  
C121     C      0.028460000000     0.496430000000     0.623130000000     0.000798975
C122     C      0.005040000000     0.510010000000     0.774030000000    -0.0565356  
C123     C      0.001640000000     0.474080000000     0.160250000000    -0.0334305  
C124     C      0.046770000000     0.519220000000     0.342770000000    -0.0319161  
C125     C      0.977030000000     0.516340000000     0.375000000000    -0.000931856
C126     C      0.041600000000     0.533620000000     0.380180000000    -0.00217404 
C127     C      0.996230000000     0.536110000000     0.261760000000    -0.0547509  
C128     C      0.042880000000     0.486210000000     0.234240000000    -0.0545578  
C129     C      0.017360000000     0.516490000000     0.284910000000     0.0604902  
C130     C      0.985490000000     0.501760000000     0.338300000000    -0.0323568  
C131     C      0.022440000000     0.506550000000     0.211070000000     0.0602584  
C132     C      0.024530000000     0.533350000000     0.152110000000    -0.0453881  
C133     C      0.998080000000     0.530760000000     0.225290000000    -0.0564732  
C134     C      0.035220000000     0.525700000000     0.113810000000     0.0452169  
C135     C      0.012290000000     0.463170000000     0.122790000000     0.000703555
C136     C      0.039950000000     0.490520000000     0.270810000000    -0.0564828  
C137     C      0.153400000000     0.996830000000     0.448220000000    -0.0334992  
C138     C      0.337740000000     0.029460000000     0.496770000000    -0.0316354  
C139     C      0.373750000000     0.962260000000     0.486270000000    -0.00104224 
C140     C      0.373580000000     0.023500000000     0.513910000000    -0.00188017 
C141     C      0.257180000000     0.980240000000     0.503570000000    -0.0546808  
C142     C      0.234600000000     0.029630000000     0.453630000000    -0.0544639  
C143     C      0.282190000000     0.999670000000     0.484540000000     0.0605046  
C144     C      0.337780000000     0.971260000000     0.470080000000    -0.0323177  
C145     C      0.209640000000     0.011890000000     0.474320000000     0.0600989  
C146     C      0.155160000000     0.026810000000     0.505040000000    -0.0455695  
C147     C      0.221190000000     0.985730000000     0.498120000000    -0.056337   
C148     C      0.118520000000     0.042810000000     0.499480000000     0.0455546  
C149     C      0.117140000000     0.012390000000     0.439590000000     0.000391937
C150     C      0.270570000000     0.023170000000     0.458130000000    -0.0567335  
C151     C      0.841300000000     0.003340000000     0.528860000000    -0.0332428  
C152     C      0.655240000000     0.970790000000     0.491230000000    -0.0323786  
C153     C      0.615950000000     0.025520000000     0.528490000000    -0.00197851 
C154     C      0.618220000000     0.962660000000     0.504930000000    -0.000420247
C155     C      0.732090000000     0.975960000000     0.527420000000    -0.0545799  
C156     C      0.761010000000     0.024720000000     0.480320000000    -0.0542799  
C157     C      0.709700000000     0.998740000000     0.508770000000     0.0605425  
C158     C      0.653470000000     0.030340000000     0.514600000000    -0.0318746  
C159     C      0.783450000000     0.002940000000     0.500040000000     0.0602988  
C160     C      0.835890000000     0.985270000000     0.467840000000    -0.0460004  
C161     C      0.768560000000     0.977450000000     0.522670000000    -0.0564065  
C162     C      0.872840000000     0.998840000000     0.458460000000     0.0467221  
C163     C      0.878790000000     0.016930000000     0.523490000000    -0.000139938
C164     C      0.724470000000     0.022270000000     0.484020000000    -0.0564625  
C165     C      0.984560000000     0.671950000000     0.492870000000    -0.0335859  
C166     C      0.019010000000     0.857670000000     0.531680000000    -0.0318856  
C167     C      0.007200000000     0.886180000000     0.461060000000    -0.000285852
C168     C      0.029440000000     0.895880000000     0.523840000000    -0.00206155 
C169     C      0.039490000000     0.776310000000     0.483850000000    -0.0545835  
C170     C      0.993090000000     0.747010000000     0.533000000000    -0.0546096  
C171     C      0.018820000000     0.798680000000     0.504810000000     0.0606157  
C172     C      0.996790000000     0.848900000000     0.472310000000    -0.0326217  
C173     C      0.014290000000     0.724680000000     0.512520000000     0.0605087  
C174     C      0.044180000000     0.667360000000     0.515230000000    -0.045547   
C175     C      0.036850000000     0.739700000000     0.487050000000    -0.0564105  
C176     C      0.038670000000     0.629090000000     0.527160000000     0.0452123  
C177     C      0.975470000000     0.634430000000     0.504600000000     0.000518051
C178     C      0.994720000000     0.783610000000     0.528810000000    -0.0566648  
C179     C      0.022750000000     0.352020000000     0.468280000000    -0.0335696  
C180     C      0.977320000000     0.168310000000     0.503070000000    -0.031959   
C181     C      0.986470000000     0.130230000000     0.436720000000    -0.0010454  
C182     C      0.962580000000     0.131140000000     0.499120000000    -0.00121001 
C183     C      0.964240000000     0.247030000000     0.451820000000    -0.0549505  
C184     C      0.015390000000     0.273150000000     0.497990000000    -0.0538501  
C185     C      0.985260000000     0.223390000000     0.470910000000     0.0607736  
C186     C      0.000580000000     0.167680000000     0.443050000000    -0.0321817  
C187     C      0.992900000000     0.296800000000     0.480610000000     0.0597421  
C188     C      0.962110000000     0.353490000000     0.488060000000    -0.0453748  
C189     C      0.968400000000     0.283450000000     0.455980000000    -0.0558157  
C190     C      0.966630000000     0.389740000000     0.505420000000     0.0450164  
C191     C      0.031030000000     0.387590000000     0.485540000000     0.000892897
C192     C      0.012240000000     0.236830000000     0.492660000000    -0.0567303  
H1       H      0.709610000000     0.533760000000     0.991030000000     0.0392937  
H2       H      0.824610000000     0.542450000000     0.038320000000     0.0323866  
H3       H      0.820660000000     0.436080000000     0.003580000000     0.0392837  
H4       H      0.612910000000     0.461910000000     0.064360000000     0.0354144  
H5       H      0.872840000000     0.537820000000     0.997560000000     0.0351643  
H6       H      0.671540000000     0.470900000000     0.968230000000     0.033705   
H7       H      0.662540000000     0.500170000000     0.076040000000     0.0326626  
H8       H      0.606320000000     0.477120000000     0.960620000000     0.0376572  
H9       H      0.887380000000     0.433010000000     0.008960000000     0.0306058  
H10      H      0.773820000000     0.535260000000     0.987160000000     0.0417693  
H11      H      0.891040000000     0.538830000000     0.041250000000     0.034318   
H12      H      0.715870000000     0.444360000000     0.061320000000     0.0426896  
H13      H      0.840690000000     0.507200000000     0.065860000000     0.0365245  
H14      H      0.596650000000     0.506210000000     0.068830000000     0.0349012  
H15      H      0.654460000000     0.513920000000     0.979730000000     0.0360363  
H16      H      0.649990000000     0.530920000000     0.041940000000     0.0368328  
H17      H      0.780100000000     0.448190000000     0.060430000000     0.0390666  
H18      H      0.838940000000     0.447200000000     0.045970000000     0.0376945  
H19      H      0.619270000000     0.441880000000     0.989340000000     0.0332744  
H20      H      0.855830000000     0.490670000000     0.944340000000     0.0368795  
H21      H      0.281390000000     0.453260000000     0.939390000000     0.0392663  
H22      H      0.169660000000     0.438120000000     0.993720000000     0.0330962  
H23      H      0.163650000000     0.541810000000     0.951680000000     0.0395184  
H24      H      0.368000000000     0.506010000000     0.037740000000     0.0356005  
H25      H      0.116730000000     0.439760000000     0.958150000000     0.0343234  
H26      H      0.328620000000     0.512820000000     0.931250000000     0.0334832  
H27      H      0.315150000000     0.471290000000     0.034360000000     0.0327453  
H28      H      0.393980000000     0.498800000000     0.934900000000     0.0371524  
H29      H      0.098250000000     0.542710000000     0.964990000000     0.0313122  
H30      H      0.217340000000     0.451940000000     0.932730000000     0.0422148  
H31      H      0.104740000000     0.437730000000     0.004000000000     0.0365012  
H32      H      0.271370000000     0.532840000000     0.020300000000     0.0429704  
H33      H      0.155090000000     0.474130000000     0.021240000000     0.0382121  
H34      H      0.380320000000     0.460310000000     0.038500000000     0.0353959  
H35      H      0.339540000000     0.467390000000     0.940480000000     0.0350838  
H36      H      0.332080000000     0.443960000000     0.999280000000     0.0366653  
H37      H      0.207310000000     0.529220000000     0.015850000000     0.0398853  
H38      H      0.151380000000     0.533830000000     0.996870000000     0.0393661  
H39      H      0.379110000000     0.534350000000     0.962200000000     0.0341632  
H40      H      0.128800000000     0.482090000000     0.902710000000     0.0371183  
H41      H      0.517710000000     0.701520000000     0.065070000000     0.0392091  
H42      H      0.533540000000     0.811550000000     0.012520000000     0.0327642  
H43      H      0.427400000000     0.819580000000     0.046960000000     0.0393487  
H44      H      0.470230000000     0.612510000000     0.966230000000     0.0353853  
H45      H      0.530160000000     0.864870000000     0.047440000000     0.0344252  
H46      H      0.458870000000     0.652900000000     0.071760000000     0.0334714  
H47      H      0.502940000000     0.666800000000     0.969780000000     0.0327853  
H48      H      0.474460000000     0.588000000000     0.069240000000     0.0373617  
H49      H      0.428500000000     0.885050000000     0.032310000000     0.030712   
H50      H      0.517490000000     0.765640000000     0.071530000000     0.0421736  
H51      H      0.535800000000     0.876200000000     0.001740000000     0.0359103  
H52      H      0.439990000000     0.709570000000     0.982270000000     0.0428373  
H53      H      0.499780000000     0.826320000000     0.982440000000     0.0371844  
H54      H      0.516300000000     0.601880000000     0.966660000000     0.0355025  
H55      H      0.504810000000     0.643230000000     0.064080000000     0.0351845  
H56      H      0.529840000000     0.651230000000     0.005780000000     0.0367545  
H57      H      0.442130000000     0.773820000000     0.986570000000     0.0394436  
H58      H      0.438830000000     0.830970000000     0.002300000000     0.0384245  
H59      H      0.440010000000     0.601610000000     0.039960000000     0.0341396  
H60      H      0.483530000000     0.855040000000     0.099800000000     0.0374666  
H61      H      0.463900000000     0.274320000000     0.941640000000     0.0392883  
H62      H      0.550090000000     0.153030000000     0.956790000000     0.0334026  
H63      H      0.444450000000     0.163680000000     0.992140000000     0.0385368  
H64      H      0.545900000000     0.370630000000     0.964120000000     0.0333374  
H65      H      0.519670000000     0.102500000000     0.932960000000     0.0332412  
H66      H      0.485410000000     0.307510000000     0.037730000000     0.032648   
H67      H      0.522650000000     0.320670000000     0.932890000000     0.0332406  
H68      H      0.475420000000     0.372760000000     0.042550000000     0.0353655  
H69      H      0.441450000000     0.098440000000     0.002520000000     0.0292855  
H70      H      0.461140000000     0.210330000000     0.934680000000     0.0425756  
H71      H      0.547560000000     0.087550000000     0.968030000000     0.0370996  
H72      H      0.543350000000     0.262110000000     0.022290000000     0.0424973  
H73      H      0.538680000000     0.140960000000     0.001540000000     0.0359504  
H74      H      0.510450000000     0.386120000000     0.937060000000     0.0372502  
H75      H      0.456670000000     0.324620000000     0.003920000000     0.0369736  
H76      H      0.477820000000     0.332260000000     0.943930000000     0.0354834  
H77      H      0.538200000000     0.198100000000     0.017600000000     0.0392577  
H78      H      0.477740000000     0.147190000000     0.021520000000     0.0399602  
H79      H      0.520890000000     0.360250000000     0.038920000000     0.0355702  
H80      H      0.455420000000     0.126940000000     0.915820000000     0.0367674  
H81      H      0.515360000000     0.006860000000     0.792520000000     0.0396599  
H82      H      0.499050000000     0.921320000000     0.669870000000     0.033258   
H83      H      0.470980000000     0.029190000000     0.680580000000     0.0384789  
H84      H      0.496000000000     0.915060000000     0.882240000000     0.0325835  
H85      H      0.529550000000     0.948450000000     0.621870000000     0.0334295  
H86      H      0.424600000000     0.983100000000     0.830620000000     0.0333398  
H87      H      0.526980000000     0.937960000000     0.831210000000     0.0334363  
H88      H      0.426680000000     0.989800000000     0.896540000000     0.0367004  
H89      H      0.467840000000     0.034490000000     0.614310000000     0.028211   
H90      H      0.522400000000     0.012130000000     0.728630000000     0.0427941  
H91      H      0.492090000000     0.926640000000     0.603340000000     0.0369318  
H92      H      0.437800000000     0.925060000000     0.777240000000     0.0427253  
H93      H      0.456720000000     0.936980000000     0.654740000000     0.0352178  
H94      H      0.530130000000     0.944260000000     0.896920000000     0.0371975  
H95      H      0.461380000000     0.009430000000     0.845340000000     0.0380646  
H96      H      0.521440000000     0.982830000000     0.846420000000     0.0370324  
H97      H      0.442270000000     0.932790000000     0.713270000000     0.03919    
H98      H      0.441600000000     0.998340000000     0.660000000000     0.0397925  
H99      H      0.428180000000     0.944610000000     0.881900000000     0.034729   
H100     H      0.550980000000     0.012940000000     0.647790000000     0.0369158  
H101     H      0.547820000000     0.047760000000     0.215170000000     0.0390535  
H102     H      0.491370000000     0.063300000000     0.331800000000     0.0329698  
H103     H      0.530580000000     0.958520000000     0.326730000000     0.0395128  
H104     H      0.451530000000     0.988900000000     0.126520000000     0.0380509  
H105     H      0.527760000000     0.055980000000     0.383790000000     0.034988   
H106     H      0.557080000000     0.992340000000     0.170520000000     0.0333691  
H107     H      0.451480000000     0.028220000000     0.175930000000     0.0325212  
H108     H      0.555350000000     0.002350000000     0.103500000000     0.0366091  
H109     H      0.519880000000     0.951690000000     0.392060000000     0.0308992  
H110     H      0.552620000000     0.048880000000     0.279590000000     0.0423375  
H111     H      0.482460000000     0.057190000000     0.397410000000     0.0347387  
H112     H      0.461240000000     0.974320000000     0.223100000000     0.0428346  
H113     H      0.463230000000     0.026830000000     0.343650000000     0.0369003  
H114     H      0.450170000000     0.032940000000     0.109370000000     0.0346899  
H115     H      0.545330000000     0.036030000000     0.155650000000     0.0343719  
H116     H      0.485690000000     0.055710000000     0.157830000000     0.0363423  
H117     H      0.463870000000     0.978240000000     0.287440000000     0.0394097  
H118     H      0.486200000000     0.966330000000     0.341350000000     0.0388314  
H119     H      0.532440000000     0.964700000000     0.120180000000     0.0350713  
H120     H      0.581770000000     0.014220000000     0.365130000000     0.0373922  
H121     H      0.021740000000     0.524710000000     0.791870000000     0.0402871  
H122     H      0.043090000000     0.479450000000     0.675490000000     0.0331989  
H123     H      0.938910000000     0.519670000000     0.670500000000     0.0395183  
H124     H      0.955130000000     0.435230000000     0.875990000000     0.0355502  
H125     H      0.044150000000     0.520860000000     0.627260000000     0.0358333  
H126     H      0.952480000000     0.536180000000     0.829240000000     0.0338908  
H127     H      0.995550000000     0.432830000000     0.826200000000     0.0332497  
H128     H      0.956830000000     0.536720000000     0.895300000000     0.0380902  
H129     H      0.941280000000     0.515460000000     0.603730000000     0.0313762  
H130     H      0.028670000000     0.533730000000     0.728290000000     0.0427226  
H131     H      0.045560000000     0.477190000000     0.609030000000     0.0359159  
H132     H      0.939570000000     0.448600000000     0.772080000000     0.0430485  
H133     H      0.008240000000     0.453690000000     0.655980000000     0.0376069  
H134     H      0.999600000000     0.432000000000     0.892190000000     0.0369652  
H135     H      0.996620000000     0.529070000000     0.845670000000     0.0376485  
H136     H      0.021880000000     0.468550000000     0.843400000000     0.0387144  
H137     H      0.948880000000     0.455090000000     0.708480000000     0.0396933  
H138     H      0.949080000000     0.476950000000     0.652530000000     0.0388903  
H139     H      0.927170000000     0.504060000000     0.878350000000     0.033795   
H140     H      0.999790000000     0.575090000000     0.642500000000     0.0384814  
H141     H      0.055700000000     0.473820000000     0.287730000000     0.0391359  
H142     H      0.002380000000     0.450150000000     0.177310000000     0.0328183  
H143     H      0.042150000000     0.553970000000     0.163390000000     0.03921    
H144     H      0.964870000000     0.542880000000     0.372050000000     0.0347769  
H145     H      0.037680000000     0.448590000000     0.124050000000     0.0344551  
H146     H      0.068320000000     0.534320000000     0.329780000000     0.0332592  
H147     H      0.961150000000     0.503400000000     0.321960000000     0.0325007  
H148     H      0.065480000000     0.527450000000     0.396020000000     0.0374945  
H149     H      0.029170000000     0.549700000000     0.098030000000     0.0310357  
H150     H      0.060990000000     0.466730000000     0.223830000000     0.0420408  
H151     H      0.992000000000     0.444770000000     0.112290000000     0.0355344  
H152     H      0.977940000000     0.555440000000     0.272150000000     0.0422896  
H153     H      0.974150000000     0.484390000000     0.160190000000     0.0371245  
H154     H      0.957260000000     0.498740000000     0.387660000000     0.036225   
H155     H      0.054940000000     0.491080000000     0.344820000000     0.0355939  
H156     H      0.993240000000     0.473470000000     0.340250000000     0.0371689  
H157     H      0.980740000000     0.545920000000     0.208480000000     0.0391488  
H158     H      0.997270000000     0.544140000000     0.151710000000     0.0383529  
H159     H      0.039440000000     0.562850000000     0.378670000000     0.0335242  
H160     H      0.092000000000     0.492600000000     0.133490000000     0.0372146  
H161     H      0.289150000000     0.037520000000     0.441920000000     0.0393357  
H162     H      0.167770000000     0.992520000000     0.422940000000     0.0330449  
H163     H      0.171070000000     0.044510000000     0.522280000000     0.039343   
H164     H      0.369540000000     0.945670000000     0.510130000000     0.0353281  
H165     H      0.120730000000     0.035850000000     0.422330000000     0.0346268  
H166     H      0.322440000000     0.048110000000     0.513550000000     0.033503   
H167     H      0.322600000000     0.946330000000     0.466960000000     0.0329172  
H168     H      0.388430000000     0.048780000000     0.513300000000     0.0378505  
H169     H      0.104790000000     0.042360000000     0.525420000000     0.030997   
H170     H      0.226100000000     0.049040000000     0.434430000000     0.0422112  
H171     H      0.101840000000     0.992440000000     0.424450000000     0.0358137  
H172     H      0.265670000000     0.961320000000     0.523250000000     0.0428546  
H173     H      0.150190000000     0.970800000000     0.461530000000     0.037234   
H174     H      0.389080000000     0.946390000000     0.466900000000     0.0352188  
H175     H      0.341910000000     0.041870000000     0.470440000000     0.0359917  
H176     H      0.341440000000     0.983140000000     0.443400000000     0.0367478  
H177     H      0.202600000000     0.970410000000     0.513400000000     0.0394466  
H178     H      0.151790000000     0.001290000000     0.519200000000     0.0389387  
H179     H      0.369440000000     0.016520000000     0.542150000000     0.0333314  
H180     H      0.144240000000     0.091570000000     0.458420000000     0.0372838  
H181     H      0.708090000000     0.039230000000     0.468000000000     0.0397274  
H182     H      0.828840000000     0.018780000000     0.550540000000     0.0333797  
H183     H      0.818950000000     0.986080000000     0.443820000000     0.0386999  
H184     H      0.617240000000     0.020420000000     0.557400000000     0.0341161  
H185     H      0.878130000000     0.046260000000     0.522610000000     0.032843   
H186     H      0.670400000000     0.945640000000     0.490540000000     0.033046   
H187     H      0.667350000000     0.049740000000     0.531730000000     0.033633   
H188     H      0.604780000000     0.945300000000     0.485430000000     0.0371752  
H189     H      0.885270000000     0.979330000000     0.440380000000     0.0279609  
H190     H      0.772000000000     0.043770000000     0.462040000000     0.042999   
H191     H      0.894700000000     0.009380000000     0.546980000000     0.0369258  
H192     H      0.721120000000     0.956940000000     0.545730000000     0.0425185  
H193     H      0.842670000000     0.975190000000     0.537160000000     0.0352226  
H194     H      0.601280000000     0.050630000000     0.524700000000     0.0382944  
H195     H      0.653760000000     0.981320000000     0.463780000000     0.0385007  
H196     H      0.651890000000     0.041310000000     0.487360000000     0.0363296  
H197     H      0.784890000000     0.959200000000     0.537280000000     0.0392271  
H198     H      0.837480000000     0.957200000000     0.476450000000     0.039448   
H199     H      0.620460000000     0.947820000000     0.530180000000     0.0350959  
H200     H      0.855770000000     0.065280000000     0.456320000000     0.0366465  
H201     H      0.977270000000     0.799850000000     0.544450000000     0.0393683  
H202     H      0.959900000000     0.687860000000     0.493290000000     0.0330467  
H203     H      0.064490000000     0.680160000000     0.532150000000     0.0393584  
H204     H      0.032560000000     0.884920000000     0.446390000000     0.034814   
H205     H      0.960550000000     0.635720000000     0.529860000000     0.0355533  
H206     H      0.037000000000     0.847040000000     0.552320000000     0.0333827  
H207     H      0.997710000000     0.831630000000     0.448520000000     0.0327639  
H208     H      0.023620000000     0.912210000000     0.547540000000     0.0374176  
H209     H      0.063080000000     0.614250000000     0.520630000000     0.0307484  
H210     H      0.974850000000     0.735880000000     0.551970000000     0.042535   
H211     H      0.957830000000     0.622460000000     0.484410000000     0.0361286  
H212     H      0.057360000000     0.787410000000     0.464500000000     0.0425517  
H213     H      0.994700000000     0.671650000000     0.465240000000     0.0370609  
H214     H      0.986780000000     0.896350000000     0.442590000000     0.0361733  
H215     H      0.991680000000     0.857610000000     0.542310000000     0.0355369  
H216     H      0.969290000000     0.848800000000     0.482600000000     0.0372609  
H217     H      0.052580000000     0.723400000000     0.469730000000     0.0393181  
H218     H      0.054460000000     0.666800000000     0.487690000000     0.0381665  
H219     H      0.058380000000     0.896920000000     0.519440000000     0.0334362  
H220     H      0.004400000000     0.645810000000     0.584260000000     0.0383636  
H221     H      0.030010000000     0.219410000000     0.506590000000     0.0400272  
H222     H      0.047460000000     0.336210000000     0.467630000000     0.0326311  
H223     H      0.941040000000     0.338490000000     0.501990000000     0.0391852  
H224     H      0.960860000000     0.132060000000     0.422590000000     0.0354957  
H225     H      0.044990000000     0.382820000000     0.510930000000     0.0349235  
H226     H      0.960400000000     0.183140000000     0.521950000000     0.0338673  
H227     H      0.000800000000     0.181940000000     0.417340000000     0.0331724  
H228     H      0.964270000000     0.117420000000     0.525030000000     0.037488   
H229     H      0.942550000000     0.405380000000     0.499500000000     0.0307724  
H230     H      0.035100000000     0.282970000000     0.516190000000     0.0419788  
H231     H      0.049280000000     0.402430000000     0.467980000000     0.0350819  
H232     H      0.944050000000     0.237140000000     0.434190000000     0.042835   
H233     H      0.013830000000     0.356040000000     0.440530000000     0.0370068  
H234     H      0.005290000000     0.115700000000     0.419520000000     0.036112   
H235     H      0.004300000000     0.166270000000     0.514370000000     0.0379172  
H236     H      0.028150000000     0.166340000000     0.453070000000     0.0383083  
H237     H      0.951530000000     0.300810000000     0.440920000000     0.0391026  
H238     H      0.953340000000     0.357660000000     0.460290000000     0.0380145  
H239     H      0.934190000000     0.133150000000     0.492140000000     0.0328096  
H240     H      0.997150000000     0.364690000000     0.561560000000     0.0372497  
N1       N      0.893720000000     0.488940000000     0.014680000000    -0.186048   
N2       N      0.819670000000     0.491010000000     0.016110000000    -0.110768   
N3       N      0.670160000000     0.481670000000     0.023510000000    -0.113189   
N4       N      0.596390000000     0.485000000000     0.016260000000    -0.181516   
N5       N      0.095850000000     0.487560000000     0.978120000000    -0.185904   
N6       N      0.169610000000     0.488430000000     0.968610000000    -0.111208   
N7       N      0.319140000000     0.496730000000     0.984330000000    -0.112962   
N8       N      0.392480000000     0.488340000000     0.990750000000    -0.181298   
N9       N      0.484430000000     0.886430000000     0.023770000000    -0.186109   
N10      N      0.481710000000     0.812660000000     0.034120000000    -0.111219   
N11      N      0.476360000000     0.662580000000     0.019170000000    -0.113018   
N12      N      0.487700000000     0.589280000000     0.013920000000    -0.181257   
N13      N      0.491730000000     0.087510000000     0.978910000000    -0.186194   
N14      N      0.496240000000     0.161430000000     0.970290000000    -0.111157   
N15      N      0.508450000000     0.311060000000     0.986490000000    -0.113037   
N16      N      0.500440000000     0.384720000000     0.993080000000    -0.181228   
N17      N      0.489840000000     0.983420000000     0.604340000000    -0.186142   
N18      N      0.489860000000     0.976130000000     0.678350000000    -0.110799   
N19      N      0.474510000000     0.957640000000     0.827370000000    -0.113499   
N20      N      0.476730000000     0.963640000000     0.901560000000    -0.181938   
N21      N      0.507700000000     0.006550000000     0.400320000000    -0.186388   
N22      N      0.514860000000     0.012600000000     0.326310000000    -0.111266   
N23      N      0.502730000000     0.005200000000     0.176100000000    -0.112402   
N24      N      0.498920000000     0.005420000000     0.102150000000    -0.180872   
N25      N      0.996930000000     0.505300000000     0.601980000000    -0.185679   
N26      N      0.992580000000     0.503880000000     0.676260000000    -0.110935   
N27      N      0.971130000000     0.483360000000     0.824100000000    -0.113283   
N28      N      0.974400000000     0.482540000000     0.898450000000    -0.181306   
N29      N      0.016710000000     0.494330000000     0.099770000000    -0.186254   
N30      N      0.026300000000     0.500870000000     0.173460000000    -0.111314   
N31      N      0.013850000000     0.522800000000     0.322470000000    -0.113163   
N32      N      0.009180000000     0.519680000000     0.396710000000    -0.181581   
N33      N      0.098650000000     0.023280000000     0.472160000000    -0.186326   
N34      N      0.172950000000     0.021490000000     0.470830000000    -0.111422   
N35      N      0.318970000000     0.995640000000     0.493570000000    -0.113342   
N36      N      0.393080000000     0.994430000000     0.496720000000    -0.181669   
N37      N      0.894910000000     0.003930000000     0.490310000000    -0.186155   
N38      N      0.821070000000     0.007360000000     0.495990000000    -0.110944   
N39      N      0.672170000000     0.996280000000     0.514950000000    -0.113171   
N40      N      0.598070000000     0.995370000000     0.511410000000    -0.181368   
N41      N      0.007480000000     0.612930000000     0.510110000000    -0.185945   
N42      N      0.010730000000     0.686970000000     0.517130000000    -0.111026   
N43      N      0.021590000000     0.836340000000     0.499250000000    -0.113169   
N44      N      0.011670000000     0.909630000000     0.491910000000    -0.181753   
N45      N      0.998670000000     0.408070000000     0.492760000000    -0.186479   
N46      N      0.995610000000     0.333940000000     0.489090000000    -0.111021   
N47      N      0.977740000000     0.186080000000     0.468430000000    -0.113444   
N48      N      0.980930000000     0.111940000000     0.470640000000    -0.181726   
O1       O      0.990220000000     0.057130000000     0.446550000000    -0.554073   
O2       O      0.999500000000     0.957950000000     0.457630000000    -0.558354   
O3       O      0.945150000000     0.003060000000     0.456440000000    -0.553635   
O4       O      0.044540000000     0.011460000000     0.447840000000    -0.556415   
O5       O      0.048310000000     0.022240000000     0.505670000000    -0.55926    
O6       O      0.949960000000     0.007680000000     0.515020000000    -0.560822   
O7       O      0.007330000000     0.965310000000     0.515580000000    -0.558575   
O8       O      0.990750000000     0.063450000000     0.505190000000    -0.560816   
O9       O      0.971040000000     0.510790000000     0.547520000000    -0.557873   
O10      O      0.976910000000     0.513620000000     0.447560000000    -0.559688   
O11      O      0.971660000000     0.462140000000     0.496080000000    -0.558342   
O12      O      0.976370000000     0.562120000000     0.499350000000    -0.557839   
O13      O      0.034480000000     0.558780000000     0.507530000000    -0.556307   
O14      O      0.030360000000     0.459580000000     0.494440000000    -0.557554   
O15      O      0.035520000000     0.515580000000     0.451210000000    -0.556369   
O16      O      0.029210000000     0.502980000000     0.550670000000    -0.554372   
O17      O      0.546020000000     0.966080000000     0.502610000000    -0.558163   
O18      O      0.446300000000     0.965600000000     0.494070000000    -0.555808   
O19      O      0.501070000000     0.971520000000     0.449140000000    -0.560082   
O20      O      0.492420000000     0.960060000000     0.548310000000    -0.557679   
O21      O      0.491180000000     0.018550000000     0.555040000000    -0.556898   
O22      O      0.498810000000     0.030010000000     0.455610000000    -0.555974   
O23      O      0.445420000000     0.023930000000     0.502090000000    -0.560768   
O24      O      0.545040000000     0.024530000000     0.509670000000    -0.556501   
O25      O      0.522590000000     0.995210000000     0.047190000000    -0.556946   
O26      O      0.511620000000     0.973900000000     0.949830000000    -0.559639   
O27      O      0.519010000000     0.033920000000     0.987140000000    -0.55753    
O28      O      0.515230000000     0.936260000000     0.008990000000    -0.560574   
O29      O      0.456890000000     0.939870000000     0.015090000000    -0.554587   
O30      O      0.460780000000     0.037800000000     0.994000000000    -0.557105   
O31      O      0.453300000000     0.978920000000     0.955340000000    -0.555728   
O32      O      0.464210000000     0.999310000000     0.052970000000    -0.557297   
O33      O      0.002500000000     0.462100000000     0.050430000000    -0.557108   
O34      O      0.988430000000     0.456320000000     0.951220000000    -0.555933   
O35      O      0.044880000000     0.459040000000     0.993740000000    -0.558253   
O36      O      0.945950000000     0.459340000000     0.007600000000    -0.557452   
O37      O      0.946480000000     0.518180000000     0.009690000000    -0.55618    
O38      O      0.043530000000     0.517250000000     0.985090000000    -0.554902   
O39      O      0.982620000000     0.514860000000     0.949010000000    -0.55699    
O40      O      0.007480000000     0.520590000000     0.045940000000    -0.557296   
O41      O      0.493220000000     0.434060000000     0.027520000000    -0.556308   
O42      O      0.487490000000     0.533570000000     0.037740000000    -0.55678    
O43      O      0.441160000000     0.481750000000     0.026020000000    -0.556851   
O44      O      0.540350000000     0.486000000000     0.039290000000    -0.554035   
O45      O      0.547710000000     0.489350000000     0.980880000000    -0.560618   
O46      O      0.448640000000     0.490930000000     0.968260000000    -0.557767   
O47      O      0.497940000000     0.540040000000     0.980080000000    -0.55706    
O48      O      0.499090000000     0.440410000000     0.969190000000    -0.557563   
S1       S      0.870790000000     0.459450000000     0.954810000000    -0.047346   
S2       S      0.108620000000     0.510420000000     0.912590000000    -0.0510977  
S3       S      0.456150000000     0.875090000000     0.087380000000    -0.0498741  
S4       S      0.436330000000     0.109500000000     0.941120000000    -0.0497081  
S5       S      0.527550000000     0.035960000000     0.632690000000    -0.0473283  
S6       S      0.572190000000     0.984220000000     0.382920000000    -0.0517165  
S7       S      0.970380000000     0.567130000000     0.623060000000    -0.0478556  
S8       S      0.081750000000     0.518900000000     0.110850000000    -0.0515127  
S9       S      0.122070000000     0.088140000000     0.486800000000    -0.0523999  
S10      S      0.869600000000     0.039660000000     0.434840000000    -0.0458273  
S11      S      0.033640000000     0.627180000000     0.574110000000    -0.0485415  
S12      S      0.968830000000     0.385190000000     0.552420000000    -0.0496901  
V1       V      0.994670000000     0.007130000000     0.449740000000     1.38527    
V2       V      0.999330000000     0.014820000000     0.512710000000     1.39955    
V3       V      0.971620000000     0.512240000000     0.497430000000     1.39731    
V4       V      0.034790000000     0.509080000000     0.501050000000     1.38607    
V5       V      0.496330000000     0.963480000000     0.498280000000     1.39235    
V6       V      0.495080000000     0.026600000000     0.505750000000     1.39332    
V7       V      0.519440000000     0.984840000000     0.998080000000     1.3937     
V8       V      0.456450000000     0.989080000000     0.004530000000     1.39012    
V9       V      0.995450000000     0.456800000000     0.000960000000     1.3918     
V10      V      0.995020000000     0.520130000000     0.997350000000     1.38887    
V11      V      0.490330000000     0.483590000000     0.034990000000     1.38458    
V12      V      0.498590000000     0.490460000000     0.972280000000     1.39401    


