data_structure

_audit_creation_method RASPA-1.0
_audit_creation_date 2023-6-5
_audit_author_name 'Poobodin Mano'

_cell_length_a    60.3983
_cell_length_b    60.9175
_cell_length_c    36.9233
_cell_angle_alpha 89.9413
_cell_angle_beta  90.0584
_cell_angle_gamma 119.919
_cell_volume      117747

_symmetry_cell_setting          triclinic
_symmetry_space_group_name_Hall 'P 1'
_symmetry_space_group_name_H-M  'P 1'
_symmetry_Int_Tables_number     1

_symmetry_equiv_pos_as_xyz 'x,y,z'

loop_
_atom_site_label
_atom_site_type_symbol
_atom_site_fract_x
_atom_site_fract_y
_atom_site_fract_z
_atom_site_charge
C1       C      0.827820000000     0.678860000000     0.741610000000     0.473976   
C2       C      0.827560000000     0.675050000000     0.604460000000     0.473931   
C3       C      0.875350000000     0.692370000000     0.672960000000     0.473416   
C4       C      0.780340000000     0.661630000000     0.672280000000     0.47462    
C5       C      0.193310000000     0.847350000000     0.739020000000     0.475287   
C6       C      0.154580000000     0.822520000000     0.864440000000     0.476256   
C7       C      0.217750000000     0.860390000000     0.830100000000     0.473556   
C8       C      0.129580000000     0.809200000000     0.774550000000     0.47245    
C9       C      0.508000000000     0.001790000000     0.015890000000     0.472038   
C10      C      0.532330000000     0.003120000000     0.884190000000     0.472198   
C11      C      0.566130000000     0.020610000000     0.970340000000     0.471723   
C12      C      0.474070000000     0.984240000000     0.930230000000     0.472927   
C13      C      0.192230000000     0.345200000000     0.375660000000     0.471413   
C14      C      0.199180000000     0.340310000000     0.239320000000     0.47229    
C15      C      0.243610000000     0.362150000000     0.313900000000     0.473863   
C16      C      0.147700000000     0.323210000000     0.300240000000     0.471757   
C17      C      0.866990000000     0.179510000000     0.105820000000     0.471004   
C18      C      0.828920000000     0.153690000000     0.231580000000     0.474111   
C19      C      0.891730000000     0.193270000000     0.197870000000     0.473026   
C20      C      0.804760000000     0.140290000000     0.139530000000     0.472402   
C21      C      0.523690000000     0.518780000000     0.547540000000     0.472305   
C22      C      0.517260000000     0.520880000000     0.410640000000     0.472486   
C23      C      0.473340000000     0.486760000000     0.481950000000     0.473941   
C24      C      0.567410000000     0.552850000000     0.476400000000     0.474977   
C25      C      0.216380000000     0.338870000000     0.868320000000     0.47403    
C26      C      0.185430000000     0.352560000000     0.747190000000     0.474527   
C27      C      0.226140000000     0.328840000000     0.775070000000     0.473836   
C28      C      0.175710000000     0.362700000000     0.840910000000     0.473122   
C29      C      0.369310000000     0.153690000000     0.759320000000     0.472527   
C30      C      0.366620000000     0.179650000000     0.629380000000     0.471055   
C31      C      0.351030000000     0.194800000000     0.716260000000     0.472968   
C32      C      0.384890000000     0.138120000000     0.672810000000     0.473241   
C33      C      0.036830000000     0.521890000000     0.012500000000     0.474879   
C34      C      0.038510000000     0.532600000000     0.876300000000     0.473802   
C35      C      0.020500000000     0.557400000000     0.952500000000     0.474521   
C36      C      0.054870000000     0.497220000000     0.935840000000     0.471923   
C37      C      0.693760000000     0.844910000000     0.269910000000     0.471694   
C38      C      0.701480000000     0.820740000000     0.398880000000     0.473476   
C39      C      0.716650000000     0.807140000000     0.309830000000     0.471887   
C40      C      0.678430000000     0.858830000000     0.358520000000     0.472801   
C41      C      0.886130000000     0.672710000000     0.244190000000     0.472664   
C42      C      0.879070000000     0.677830000000     0.108020000000     0.473824   
C43      C      0.913150000000     0.658420000000     0.166360000000     0.474197   
C44      C      0.852380000000     0.692030000000     0.186650000000     0.471588   
C45      C      0.536920000000     0.999640000000     0.511290000000     0.473672   
C46      C      0.503760000000     0.007450000000     0.388510000000     0.473736   
C47      C      0.546170000000     0.986220000000     0.419670000000     0.473044   
C48      C      0.494430000000     0.020910000000     0.479680000000     0.472679   
C49      C      0.366990000000     0.182010000000     0.130900000000     0.470764   
C50      C      0.373200000000     0.213470000000     0.259820000000     0.472452   
C51      C      0.352170000000     0.153120000000     0.220260000000     0.472577   
C52      C      0.387820000000     0.242090000000     0.170480000000     0.471585   
C53      C      0.514880000000     0.503620000000     0.919990000000     0.473315   
C54      C      0.540310000000     0.546760000000     0.042590000000     0.474371   
C55      C      0.551910000000     0.567690000000     0.949280000000     0.472887   
C56      C      0.503560000000     0.482960000000     0.013530000000     0.472933   
C57      C      0.190200000000     0.852000000000     0.228360000000     0.474081   
C58      C      0.191070000000     0.844710000000     0.365040000000     0.47351    
C59      C      0.219940000000     0.895910000000     0.299810000000     0.472176   
C60      C      0.161370000000     0.800800000000     0.292140000000     0.473733   
C61      C      0.041210000000     0.531710000000     0.503060000000     0.47518    
C62      C      0.036300000000     0.493100000000     0.379800000000     0.476066   
C63      C      0.051760000000     0.554900000000     0.412700000000     0.472357   
C64      C      0.025730000000     0.469880000000     0.470570000000     0.473396   
C65      C      0.877620000000     0.197200000000     0.594250000000     0.472811   
C66      C      0.889150000000     0.203060000000     0.730700000000     0.472639   
C67      C      0.916340000000     0.246490000000     0.656980000000     0.47442    
C68      C      0.850090000000     0.153330000000     0.668000000000     0.47323    
C69      C      0.696330000000     0.858020000000     0.766430000000     0.47198    
C70      C      0.695940000000     0.879290000000     0.899140000000     0.47351    
C71      C      0.676830000000     0.822110000000     0.849960000000     0.472287   
C72      C      0.715190000000     0.914860000000     0.816660000000     0.473088   
C73      C      0.791430000000     0.098370000000     0.700370000000    -0.0320404  
C74      C      0.762580000000     0.977270000000     0.780820000000    -0.0320451  
C75      C      0.709400000000     0.951640000000     0.804100000000    -0.0019529  
C76      C      0.753620000000     0.957050000000     0.810340000000    -0.00137095 
C77      C      0.757710000000     0.010620000000     0.721500000000    -0.0570397  
C78      C      0.784340000000     0.058110000000     0.754770000000    -0.0570295  
C79      C      0.758350000000     0.012340000000     0.759570000000     0.0604595  
C80      C      0.720300000000     0.972490000000     0.775220000000    -0.0320518  
C81      C      0.783590000000     0.056410000000     0.716690000000     0.0604135  
C82      C      0.825550000000     0.088080000000     0.696780000000    -0.031843   
C83      C      0.770090000000     0.032530000000     0.700360000000    -0.0549509  
C84      C      0.839660000000     0.108520000000     0.668160000000    -0.00176028 
C85      C      0.804640000000     0.119490000000     0.672220000000    -0.00200458 
C86      C      0.771650000000     0.036230000000     0.775890000000    -0.0549477  
C87      C      0.938070000000     0.309640000000     0.624810000000    -0.0318608  
C88      C      0.030510000000     0.420420000000     0.523420000000    -0.0320828  
C89      C      0.991150000000     0.427670000000     0.488890000000    -0.00124037 
C90      C      0.037550000000     0.438410000000     0.491020000000    -0.00199782 
C91      C      0.999860000000     0.385090000000     0.584340000000    -0.0571097  
C92      C      0.974170000000     0.335080000000     0.559380000000    -0.057002   
C93      C      0.996530000000     0.380250000000     0.546860000000     0.0604413  
C94      C      0.986350000000     0.410650000000     0.521750000000    -0.0320486  
C95      C      0.977590000000     0.339890000000     0.596870000000     0.0604172  
C96      C      0.972410000000     0.299690000000     0.618310000000    -0.0321368  
C97      C      0.990640000000     0.365020000000     0.609010000000    -0.055045   
C98      C      0.961560000000     0.280570000000     0.649520000000    -0.00212203 
C99      C      0.926710000000     0.291310000000     0.656600000000    -0.00145465 
C100     C      0.983800000000     0.355130000000     0.534710000000    -0.0548958  
C101     C      0.048150000000     0.608540000000     0.368230000000    -0.0320517  
C102     C      0.143290000000     0.735140000000     0.307250000000    -0.0320885  
C103     C      0.117610000000     0.763470000000     0.289370000000    -0.00195017 
C104     C      0.156180000000     0.758260000000     0.282480000000    -0.00133144 
C105     C      0.102840000000     0.697540000000     0.360400000000    -0.0569201  
C106     C      0.082260000000     0.652990000000     0.319530000000    -0.0570161  
C107     C      0.102820000000     0.698890000000     0.322310000000     0.0604206  
C108     C      0.105620000000     0.739830000000     0.313510000000    -0.0322585  
C109     C      0.082440000000     0.651690000000     0.357600000000     0.0604949  
C110     C      0.092230000000     0.618690000000     0.370740000000    -0.0320344  
C111     C      0.092580000000     0.674110000000     0.377760000000    -0.0548142  
C112     C      0.086480000000     0.597570000000     0.397800000000    -0.000923081
C113     C      0.039610000000     0.586380000000     0.394680000000    -0.00157313 
C114     C      0.092260000000     0.676430000000     0.302150000000    -0.0549576  
C115     C      0.606400000000     0.629460000000     0.922260000000    -0.0322034  
C116     C      0.628190000000     0.754290000000     0.866110000000    -0.0320661  
C117     C      0.683260000000     0.787690000000     0.872980000000    -0.0013323  
C118     C      0.638790000000     0.782790000000     0.869480000000    -0.00140151 
C119     C      0.627020000000     0.709410000000     0.924420000000    -0.0548449  
C120     C      0.613750000000     0.677550000000     0.864130000000    -0.0548938  
C121     C      0.633090000000     0.719970000000     0.889640000000     0.0603652  
C122     C      0.670280000000     0.758830000000     0.869530000000    -0.0321312  
C123     C      0.607160000000     0.666980000000     0.898870000000     0.0603596  
C124     C      0.567180000000     0.631320000000     0.918560000000    -0.0318589  
C125     C      0.614220000000     0.683160000000     0.929140000000    -0.0570005  
C126     C      0.550870000000     0.602500000000     0.916320000000    -0.00185573 
C127     C      0.591670000000     0.600490000000     0.920210000000    -0.00155322 
C128     C      0.626670000000     0.703820000000     0.859420000000    -0.0570477  
C129     C      0.279150000000     0.960640000000     0.297110000000    -0.0321761  
C130     C      0.304490000000     0.087260000000     0.245690000000    -0.0320342  
C131     C      0.359800000000     0.120180000000     0.246690000000    -0.00155946 
C132     C      0.315760000000     0.115880000000     0.248180000000    -0.00142472 
C133     C      0.301890000000     0.036610000000     0.236590000000    -0.0569188  
C134     C      0.291190000000     0.015990000000     0.306430000000    -0.0571833  
C135     C      0.309870000000     0.052800000000     0.266880000000     0.0603148  
C136     C      0.346500000000     0.091240000000     0.244420000000    -0.032151   
C137     C      0.282330000000     0.999850000000     0.276110000000     0.0606488  
C138     C      0.242100000000     0.965730000000     0.298190000000    -0.0320183  
C139     C      0.288170000000     0.010370000000     0.241300000000    -0.0548659  
C140     C      0.223570000000     0.937500000000     0.292930000000    -0.000721996
C141     C      0.263230000000     0.931940000000     0.291810000000    -0.00070235 
C142     C      0.304770000000     0.042260000000     0.301720000000    -0.0548448  
C143     C      0.434620000000     0.307630000000     0.138770000000    -0.0319478  
C144     C      0.450080000000     0.422510000000     0.050010000000    -0.0320836  
C145     C      0.505800000000     0.449720000000     0.048560000000    -0.00171621 
C146     C      0.464510000000     0.451320000000     0.044970000000    -0.0014225  
C147     C      0.442320000000     0.368780000000     0.057590000000    -0.0569502  
C148     C      0.435700000000     0.357850000000     0.131740000000    -0.057041   
C149     C      0.451400000000     0.388710000000     0.082870000000     0.0604098  
C150     C      0.489400000000     0.421090000000     0.053270000000    -0.0317719  
C151     C      0.427350000000     0.337970000000     0.106480000000     0.0604944  
C152     C      0.392250000000     0.302360000000     0.137090000000    -0.0320951  
C153     C      0.430470000000     0.343650000000     0.069430000000    -0.0548005  
C154     C      0.379460000000     0.273570000000     0.141260000000    -0.00121244 
C155     C      0.424370000000     0.279220000000     0.143080000000    -0.00138307 
C156     C      0.447700000000     0.382990000000     0.119900000000    -0.0547021  
C157     C      0.678770000000     0.805950000000     0.490240000000    -0.0321964  
C158     C      0.719320000000     0.847090000000     0.677850000000    -0.0319271  
C159     C      0.674520000000     0.847170000000     0.707310000000    -0.00103257 
C160     C      0.722050000000     0.861610000000     0.712830000000    -0.00188638 
C161     C      0.698710000000     0.852780000000     0.589580000000    -0.0547145  
C162     C      0.700030000000     0.808350000000     0.575670000000    -0.0549993  
C163     C      0.698930000000     0.838080000000     0.618620000000     0.0602256  
C164     C      0.674250000000     0.833050000000     0.672870000000    -0.0322188  
C165     C      0.700830000000     0.823590000000     0.546670000000     0.0603124  
C166     C      0.724580000000     0.836660000000     0.490120000000    -0.0318567  
C167     C      0.699310000000     0.845510000000     0.553890000000    -0.0569597  
C168     C      0.727880000000     0.826810000000     0.453610000000    -0.00179092 
C169     C      0.680990000000     0.795110000000     0.453830000000    -0.0017764  
C170     C      0.698740000000     0.815280000000     0.611380000000    -0.0569901  
C171     C      0.712220000000     0.877990000000     0.179740000000    -0.0319285  
C172     C      0.670290000000     0.869420000000     0.990440000000    -0.0324318  
C173     C      0.720020000000     0.898230000000     0.955720000000    -0.00166533 
C174     C      0.672560000000     0.881290000000     0.953010000000    -0.00142532 
C175     C      0.690900000000     0.853760000000     0.057990000000    -0.0569879  
C176     C      0.689420000000     0.885100000000     0.112120000000    -0.0569277  
C177     C      0.691530000000     0.876450000000     0.048350000000     0.0604104  
C178     C      0.716350000000     0.886060000000     0.993040000000    -0.0319845  
C179     C      0.690660000000     0.863360000000     0.121770000000     0.0603456  
C180     C      0.667570000000     0.846170000000     0.177890000000    -0.0320316  
C181     C      0.690790000000     0.847520000000     0.094410000000    -0.0546467  
C182     C      0.669170000000     0.833890000000     0.213250000000    -0.000917176
C183     C      0.716630000000     0.868150000000     0.215500000000    -0.0013354  
C184     C      0.690200000000     0.891700000000     0.075670000000    -0.0550821  
C185     C      0.724020000000     0.752400000000     0.279810000000    -0.0321609  
C186     C      0.828670000000     0.737220000000     0.207180000000    -0.031947   
C187     C      0.809150000000     0.682720000000     0.203170000000    -0.0010934  
C188     C      0.847800000000     0.727790000000     0.207000000000    -0.0010264  
C189     C      0.783450000000     0.730990000000     0.269570000000    -0.0547651  
C190     C      0.764670000000     0.749360000000     0.215270000000    -0.0547505  
C191     C      0.788460000000     0.728580000000     0.233200000000     0.0604408  
C192     C      0.792360000000     0.695020000000     0.203700000000    -0.0320485  
C193     C      0.760370000000     0.752520000000     0.251690000000     0.0602788  
C194     C      0.765460000000     0.790490000000     0.279930000000    -0.0320565  
C195     C      0.769470000000     0.742780000000     0.278860000000    -0.0569083  
C196     C      0.753760000000     0.807620000000     0.281800000000    -0.00131322 
C197     C      0.709990000000     0.767520000000     0.281910000000    -0.00158565 
C198     C      0.778520000000     0.737430000000     0.205960000000    -0.0571346  
C199     C      0.564840000000     0.939010000000     0.399300000000    -0.0318826  
C200     C      0.671140000000     0.914730000000     0.373910000000    -0.0322057  
C201     C      0.640950000000     0.859970000000     0.383060000000    -0.00177405 
C202     C      0.684510000000     0.899520000000     0.382160000000    -0.00172829 
C203     C      0.626840000000     0.923840000000     0.354460000000    -0.0570882  
C204     C      0.613150000000     0.937850000000     0.419140000000    -0.0569884  
C205     C      0.633280000000     0.917300000000     0.387860000000     0.0604653  
C206     C      0.629330000000     0.876660000000     0.374640000000    -0.0318753  
C207     C      0.606050000000     0.943740000000     0.385750000000     0.0603852  
C208     C      0.602740000000     0.980980000000     0.399560000000    -0.0322209  
C209     C      0.613290000000     0.936910000000     0.353540000000    -0.0549109  
C210     C      0.586700000000     0.993590000000     0.391910000000    -0.00170905 
C211     C      0.547530000000     0.950080000000     0.391440000000    -0.00180689 
C212     C      0.626610000000     0.924700000000     0.420050000000    -0.0549553  
C213     C      0.065770000000     0.551060000000     0.593710000000    -0.0320052  
C214     C      0.017230000000     0.526570000000     0.779810000000    -0.0322421  
C215     C      0.064620000000     0.549750000000     0.821570000000    -0.00118683 
C216     C      0.016990000000     0.516630000000     0.817880000000    -0.000465175
C217     C      0.041260000000     0.560360000000     0.710620000000    -0.0572289  
C218     C      0.042700000000     0.524890000000     0.664070000000    -0.057128   
C219     C      0.042320000000     0.539490000000     0.725040000000     0.0607507  
C220     C      0.062240000000     0.557450000000     0.783030000000    -0.0319066  
C221     C      0.042890000000     0.546390000000     0.649610000000     0.0606816  
C222     C      0.019350000000     0.532800000000     0.593510000000    -0.0320533  
C223     C      0.041840000000     0.563850000000     0.673160000000    -0.0551221  
C224     C      0.019770000000     0.540250000000     0.553830000000    -0.00140041 
C225     C      0.067410000000     0.558730000000     0.553980000000    -0.00147262 
C226     C      0.042700000000     0.521700000000     0.701490000000    -0.0549803  
C227     C      0.059380000000     0.523600000000     0.106540000000    -0.0321514  
C228     C      0.012130000000     0.479110000000     0.290130000000    -0.031792   
C229     C      0.058050000000     0.486790000000     0.327220000000    -0.00151627 
C230     C      0.010520000000     0.467580000000     0.327450000000    -0.0012067  
C231     C      0.036610000000     0.476180000000     0.205160000000    -0.0552478  
C232     C      0.035430000000     0.520600000000     0.190180000000    -0.0550025  
C233     C      0.035650000000     0.490760000000     0.233760000000     0.0607167  
C234     C      0.058820000000     0.498200000000     0.289970000000    -0.0321387  
C235     C      0.035600000000     0.505630000000     0.161580000000     0.0606432  
C236     C      0.013950000000     0.493510000000     0.103450000000    -0.0318689  
C237     C      0.036870000000     0.483630000000     0.169290000000    -0.0571336  
C238     C      0.011110000000     0.504630000000     0.067840000000    -0.00152251 
C239     C      0.058730000000     0.536440000000     0.071280000000    -0.000825125
C240     C      0.035720000000     0.513450000000     0.226010000000    -0.0571973  
C241     C      0.966370000000     0.660010000000     0.121090000000    -0.0321223  
C242     C      0.977380000000     0.572960000000     0.995220000000    -0.0320458  
C243     C      0.028110000000     0.600930000000     0.963240000000    -0.00192288 
C244     C      0.983500000000     0.564200000000     0.959730000000    -0.00162478 
C245     C      0.989870000000     0.604730000000     0.065440000000    -0.0569355  
C246     C      0.963740000000     0.631120000000     0.052800000000    -0.0570237  
C247     C      0.985850000000     0.609940000000     0.029610000000     0.0604049  
C248     C      0.020930000000     0.609130000000     0.998480000000    -0.0320941  
C249     C      0.967990000000     0.626130000000     0.088630000000     0.0604827  
C250     C      0.929720000000     0.616890000000     0.121250000000    -0.0318127  
C251     C      0.981150000000     0.612940000000     0.094600000000    -0.0549569  
C252     C      0.919980000000     0.621920000000     0.156710000000    -0.00162043 
C253     C      0.957210000000     0.666180000000     0.156330000000    -0.00198205 
C254     C      0.972780000000     0.623220000000     0.023650000000    -0.0548786  
C255     C      0.344900000000     0.137280000000     0.850900000000    -0.032344   
C256     C      0.386760000000     0.168650000000     0.040590000000    -0.0318333  
C257     C      0.342870000000     0.168670000000     0.073820000000    -0.00105387 
C258     C      0.390550000000     0.182240000000     0.076780000000    -0.00155905 
C259     C      0.366000000000     0.178700000000     0.955180000000    -0.054651   
C260     C      0.365470000000     0.134150000000     0.935470000000    -0.0549878  
C261     C      0.365700000000     0.162420000000     0.982230000000     0.0602344  
C262     C      0.341950000000     0.155510000000     0.038070000000    -0.0320428  
C263     C      0.366780000000     0.150930000000     0.908450000000     0.0602477  
C264     C      0.391040000000     0.165930000000     0.852570000000    -0.0317868  
C265     C      0.366230000000     0.172950000000     0.918600000000    -0.0568957  
C266     C      0.394160000000     0.157490000000     0.814850000000    -0.00206584 
C267     C      0.346670000000     0.127780000000     0.813150000000    -0.00179224 
C268     C      0.364610000000     0.139610000000     0.972080000000    -0.0569495  
C269     C      0.344250000000     0.177460000000     0.534230000000    -0.032023   
C270     C      0.349630000000     0.209190000000     0.351600000000    -0.031996   
C271     C      0.398960000000     0.233180000000     0.315110000000    -0.00211393 
C272     C      0.352190000000     0.219840000000     0.313250000000    -0.00203234 
C273     C      0.369240000000     0.194920000000     0.422310000000    -0.0568174  
C274     C      0.367440000000     0.229060000000     0.471110000000    -0.0549231  
C275     C      0.371270000000     0.217620000000     0.409340000000     0.0602878  
C276     C      0.394940000000     0.222420000000     0.353570000000    -0.0318742  
C277     C      0.365900000000     0.206760000000     0.484240000000     0.0600217  
C278     C      0.389300000000     0.208380000000     0.538230000000    -0.0320726  
C279     C      0.367130000000     0.189790000000     0.459500000000    -0.0565804  
C280     C      0.388320000000     0.209710000000     0.579500000000    -0.00124893 
C281     C      0.341020000000     0.176640000000     0.575460000000    -0.00219007 
C282     C      0.370170000000     0.234470000000     0.434060000000    -0.0552567  
C283     C      0.480250000000     0.065300000000     0.529550000000    -0.0319968  
C284     C      0.385470000000     0.084940000000     0.625710000000    -0.0320662  
C285     C      0.421880000000     0.132310000000     0.660650000000    -0.00152255 
C286     C      0.376760000000     0.095190000000     0.657160000000    -0.0020126  
C287     C      0.433410000000     0.068080000000     0.616830000000    -0.0549446  
C288     C      0.428850000000     0.072480000000     0.542180000000    -0.0549051  
C289     C      0.421320000000     0.081080000000     0.603930000000     0.0604246  
C290     C      0.428700000000     0.120790000000     0.628800000000    -0.0320334  
C291     C      0.441030000000     0.059570000000     0.555070000000     0.0603762  
C292     C      0.443460000000     0.023050000000     0.533560000000    -0.0319907  
C293     C      0.443360000000     0.057530000000     0.592720000000    -0.0569489  
C294     C      0.452670000000     0.013690000000     0.501580000000    -0.00204941 
C295     C      0.491000000000     0.058160000000     0.497070000000    -0.00146955 
C296     C      0.419200000000     0.083310000000     0.566280000000    -0.0570525  
C297     C      0.058470000000     0.437700000000     0.924280000000    -0.0321313  
C298     C      0.158930000000     0.409760000000     0.872730000000    -0.0319119  
C299     C      0.135900000000     0.354830000000     0.871460000000    -0.00163715 
C300     C      0.175910000000     0.397820000000     0.874610000000    -0.00173118 
C301     C      0.113400000000     0.410000000000     0.928050000000    -0.0549418  
C302     C      0.098730000000     0.427580000000     0.867790000000    -0.0549312  
C303     C      0.118900000000     0.405010000000     0.893180000000     0.060329   
C304     C      0.120370000000     0.368470000000     0.869910000000    -0.0323108  
C305     C      0.093980000000     0.433270000000     0.902650000000     0.0605352  
C306     C      0.101220000000     0.473690000000     0.924590000000    -0.0319277  
C307     C      0.100960000000     0.423950000000     0.932870000000    -0.0571171  
C308     C      0.091790000000     0.492590000000     0.920330000000    -0.00111031 
C309     C      0.046300000000     0.454430000000     0.920140000000    -0.00127453 
C310     C      0.111030000000     0.413520000000     0.862960000000    -0.0568801  
C311     C      0.243660000000     0.281480000000     0.751910000000    -0.031888   
C312     C      0.347350000000     0.252960000000     0.730250000000    -0.0323008  
C313     C      0.314580000000     0.198430000000     0.739090000000    -0.00153926 
C314     C      0.359260000000     0.236460000000     0.738930000000    -0.00161343 
C315     C      0.303650000000     0.265100000000     0.775300000000    -0.0549198  
C316     C      0.292470000000     0.278920000000     0.708430000000    -0.0548549  
C317     C      0.310620000000     0.257790000000     0.743310000000     0.0604671  
C318     C      0.304520000000     0.216340000000     0.730130000000    -0.0318835  
C319     C      0.284850000000     0.285620000000     0.740410000000     0.0604442  
C320     C      0.282100000000     0.323070000000     0.754870000000    -0.0321479  
C321     C      0.290900000000     0.278930000000     0.774000000000    -0.0569077  
C322     C      0.266670000000     0.336300000000     0.747090000000    -0.00171723 
C323     C      0.227070000000     0.293330000000     0.743850000000    -0.00165144 
C324     C      0.305290000000     0.265150000000     0.709740000000    -0.0569909  
C325     C      0.529280000000     0.496140000000     0.638610000000    -0.0319675  
C326     C      0.495620000000     0.502200000000     0.827900000000    -0.0321083  
C327     C      0.522490000000     0.481700000000     0.868800000000    -0.00212894 
C328     C      0.486730000000     0.491380000000     0.865970000000    -0.00170674 
C329     C      0.533260000000     0.520000000000     0.761480000000    -0.0569123  
C330     C      0.501380000000     0.485380000000     0.709260000000    -0.0568914  
C331     C      0.513080000000     0.496230000000     0.772450000000     0.0603198  
C332     C      0.530220000000     0.492350000000     0.830410000000    -0.0318641  
C333     C      0.522350000000     0.508630000000     0.698250000000     0.0602089  
C334     C      0.510330000000     0.522950000000     0.644480000000    -0.0321419  
C335     C      0.537980000000     0.525920000000     0.724690000000    -0.0547843  
C336     C      0.520340000000     0.535030000000     0.607320000000    -0.00127011 
C337     C      0.539810000000     0.506670000000     0.600990000000    -0.00197354 
C338     C      0.497060000000     0.479190000000     0.746040000000    -0.0550072  
C339     C      0.530340000000     0.515040000000     0.314120000000    -0.0321647  
C340     C      0.559550000000     0.546360000000     0.134380000000    -0.0325134  
C341     C      0.530760000000     0.566600000000     0.094050000000    -0.000342544
C342     C      0.568280000000     0.559010000000     0.096870000000    -0.00143114 
C343     C      0.509190000000     0.519420000000     0.196650000000    -0.0549694  
C344     C      0.543300000000     0.552260000000     0.248680000000    -0.0567298  
C345     C      0.531610000000     0.541060000000     0.185500000000     0.0608116  
C346     C      0.534290000000     0.568070000000     0.135270000000    -0.0319473  
C347     C      0.520560000000     0.530610000000     0.259780000000     0.0602364  
C348     C      0.514810000000     0.544760000000     0.318930000000    -0.0318729  
C349     C      0.503690000000     0.514270000000     0.233450000000    -0.0549195  
C350     C      0.503570000000     0.534960000000     0.356560000000    -0.00212675 
C351     C      0.519480000000     0.503540000000     0.351230000000    -0.00131624 
C352     C      0.548560000000     0.557650000000     0.211820000000    -0.0570606  
C353     C      0.893770000000     0.178510000000     0.013720000000    -0.0321336  
C354     C      0.875810000000     0.208720000000     0.827060000000    -0.0318475  
C355     C      0.911260000000     0.199650000000     0.784920000000    -0.00134174 
C356     C      0.882920000000     0.219350000000     0.788690000000    -0.00202472 
C357     C      0.911590000000     0.217420000000     0.906500000000    -0.0549124  
C358     C      0.866950000000     0.175480000000     0.932030000000    -0.0547918  
C359     C      0.893120000000     0.201050000000     0.881750000000     0.0602561  
C360     C      0.902700000000     0.189600000000     0.823420000000    -0.0323123  
C361     C      0.884900000000     0.192430000000     0.956810000000     0.0604555  
C362     C      0.881730000000     0.210690000000     0.013800000000    -0.0319434  
C363     C      0.907730000000     0.213050000000     0.943760000000    -0.0571018  
C364     C      0.869170000000     0.203030000000     0.051040000000    -0.000924346
C365     C      0.881650000000     0.168150000000     0.050750000000    -0.000638379
C366     C      0.871070000000     0.179520000000     0.894800000000    -0.0569357  
C367     C      0.821930000000     0.171500000000     0.320260000000    -0.0320397  
C368     C      0.874380000000     0.174000000000     0.500860000000    -0.0321663  
C369     C      0.860890000000     0.207390000000     0.539540000000    -0.00196776 
C370     C      0.889690000000     0.188290000000     0.534410000000    -0.00138278 
C371     C      0.868430000000     0.191570000000     0.416330000000    -0.0548028  
C372     C      0.820740000000     0.147930000000     0.408070000000    -0.055115   
C373     C      0.854320000000     0.178840000000     0.447120000000     0.060298   
C374     C      0.847020000000     0.192540000000     0.505570000000    -0.0318554  
C375     C      0.834530000000     0.161110000000     0.377290000000     0.0603914  
C376     C      0.836420000000     0.140370000000     0.322470000000    -0.0321302  
C377     C      0.858840000000     0.182700000000     0.381690000000    -0.056977   
C378     C      0.822140000000     0.128210000000     0.287220000000    -0.00181968 
C379     C      0.807640000000     0.160120000000     0.284810000000    -0.00150641 
C380     C      0.830610000000     0.156490000000     0.442740000000    -0.056927   
C381     C      0.179890000000     0.326570000000     0.473530000000    -0.0322129  
C382     C      0.162140000000     0.330980000000     0.657100000000    -0.0327218  
C383     C      0.191710000000     0.380510000000     0.695040000000    -1.6065e-05 
C384     C      0.155120000000     0.335250000000     0.695620000000    -0.00124501 
C385     C      0.207860000000     0.355010000000     0.587860000000    -0.0551438  
C386     C      0.169050000000     0.350720000000     0.541900000000    -0.0566581  
C387     C      0.185750000000     0.353290000000     0.602730000000     0.060927   
C388     C      0.185500000000     0.377780000000     0.654450000000    -0.0322669  
C389     C      0.191500000000     0.352800000000     0.527040000000     0.060197   
C390     C      0.190830000000     0.370360000000     0.467930000000    -0.0320019  
C391     C      0.210750000000     0.354840000000     0.550350000000    -0.0548078  
C392     C      0.200400000000     0.372240000000     0.429080000000    -0.00162666 
C393     C      0.189270000000     0.325940000000     0.435290000000    -0.00093826 
C394     C      0.166410000000     0.351440000000     0.579460000000    -0.0571817  
C395     C      0.202910000000     0.315550000000     0.148440000000    -0.0318921  
C396     C      0.235520000000     0.357620000000     0.959610000000    -0.0322511  
C397     C      0.212680000000     0.310360000000     0.919000000000    -0.00166122 
C398     C      0.245020000000     0.356630000000     0.921530000000    -0.00155628 
C399     C      0.236120000000     0.334210000000     0.041850000000    -0.0549856  
C400     C      0.192170000000     0.335410000000     0.062190000000    -0.0547491  
C401     C      0.219500000000     0.333860000000     0.015070000000     0.0604435  
C402     C      0.204150000000     0.312280000000     0.957290000000    -0.0319632  
C403     C      0.208370000000     0.334970000000     0.088990000000     0.0604377  
C404     C      0.216560000000     0.360160000000     0.143200000000    -0.0322576  
C405     C      0.230870000000     0.335120000000     0.078520000000    -0.0569862  
C406     C      0.204530000000     0.360350000000     0.179560000000    -0.000897854
C407     C      0.190620000000     0.313490000000     0.185390000000    -0.00183023 
C408     C      0.197780000000     0.335210000000     0.025550000000    -0.0569231  
C409     C      0.082400000000     0.315630000000     0.286180000000    -0.0321043  
C410     C      0.957170000000     0.212100000000     0.228960000000    -0.0320879  
C411     C      0.923550000000     0.233580000000     0.226180000000    -0.0014018  
C412     C      0.928260000000     0.194500000000     0.229680000000    -0.00149916 
C413     C      0.000520000000     0.258030000000     0.286610000000    -0.0546948  
C414     C      0.034560000000     0.273620000000     0.228320000000    -0.0548436  
C415     C      0.991000000000     0.252080000000     0.251190000000     0.0601766  
C416     C      0.952760000000     0.249540000000     0.225650000000    -0.0322632  
C417     C      0.044090000000     0.278870000000     0.263760000000     0.0605568  
C418     C      0.078390000000     0.274260000000     0.289400000000    -0.0319234  
C419     C      0.026850000000     0.271400000000     0.292960000000    -0.0571463  
C420     C      0.107170000000     0.284870000000     0.286750000000    -0.000955575
C421     C      0.111580000000     0.329050000000     0.283440000000    -0.00118615 
C422     C      0.008260000000     0.260420000000     0.221950000000    -0.0568415  
C423     C      0.419460000000     0.430360000000     0.448750000000    -0.0321983  
C424     C      0.305060000000     0.408340000000     0.349420000000    -0.0320271  
C425     C      0.281700000000     0.356990000000     0.320930000000    -0.00204107 
C426     C      0.286580000000     0.400400000000     0.317400000000    -0.00162718 
C427     C      0.333690000000     0.400250000000     0.413300000000    -0.0569085  
C428     C      0.384110000000     0.428100000000     0.388750000000    -0.0569055  
C429     C      0.338700000000     0.403210000000     0.375820000000     0.0605506  
C430     C      0.300620000000     0.366250000000     0.352580000000    -0.0320332  
C431     C      0.379140000000     0.424860000000     0.426240000000     0.0606062  
C432     C      0.409450000000     0.464620000000     0.453510000000    -0.0319236  
C433     C      0.353810000000     0.410840000000     0.438180000000    -0.0549441  
C434     C      0.428100000000     0.476370000000     0.485100000000    -0.00140493 
C435     C      0.438720000000     0.441690000000     0.479890000000    -0.00197825 
C436     C      0.364030000000     0.417170000000     0.363880000000    -0.054864   
C437     C      0.529580000000     0.975540000000     0.602600000000    -0.0319719  
C438     C      0.553510000000     0.024790000000     0.788450000000    -0.032221   
C439     C      0.529270000000     0.977980000000     0.830750000000    -0.00130104 
C440     C      0.542870000000     0.025270000000     0.825810000000    -0.000443475
C441     C      0.563760000000     0.999500000000     0.719910000000    -0.0571231  
C442     C      0.527680000000     0.999630000000     0.672460000000    -0.0568011  
C443     C      0.542100000000     0.999570000000     0.733870000000     0.0605654  
C444     C      0.540220000000     0.980430000000     0.792700000000    -0.0319005  
C445     C      0.548570000000     0.998110000000     0.658480000000     0.0603253  
C446     C      0.560150000000     0.021010000000     0.601790000000    -0.0322194  
C447     C      0.566710000000     0.998450000000     0.682500000000    -0.0549603  
C448     C      0.567160000000     0.019600000000     0.562340000000    -0.00166489 
C449     C      0.535480000000     0.972950000000     0.563090000000    -0.00175377 
C450     C      0.524390000000     0.000030000000     0.709820000000    -0.0549222  
C451     C      0.480270000000     0.985730000000     0.298360000000    -0.0320123  
C452     C      0.500300000000     0.024730000000     0.107220000000    -0.0319069  
C453     C      0.497440000000     0.979720000000     0.074360000000    -0.000625071
C454     C      0.511290000000     0.027060000000     0.069250000000    -0.00127445 
C455     C      0.516070000000     0.005630000000     0.190300000000    -0.0547992  
C456     C      0.473780000000     0.007450000000     0.217250000000    -0.0549972  
C457     C      0.498290000000     0.005810000000     0.166120000000     0.0605762  
C458     C      0.486790000000     0.980320000000     0.111670000000    -0.0319956  
C459     C      0.492020000000     0.008120000000     0.241390000000     0.0604167  
C460     C      0.511230000000     0.031110000000     0.297040000000    -0.0319996  
C461     C      0.512870000000     0.006440000000     0.227620000000    -0.056903   
C462     C      0.505380000000     0.034030000000     0.336440000000    -0.00175343 
C463     C      0.473310000000     0.987500000000     0.337690000000    -0.00161319 
C464     C      0.476630000000     0.005960000000     0.179900000000    -0.0571244  
C465     C      0.741270000000     0.122580000000     0.098790000000    -0.0318827  
C466     C      0.627580000000     0.025860000000     0.003850000000    -0.0319252  
C467     C      0.604130000000     0.057480000000     0.994860000000    -0.00124198 
C468     C      0.598700000000     0.012850000000     0.997650000000    -0.00113665 
C469     C      0.683100000000     0.069770000000     0.014000000000    -0.0569297  
C470     C      0.690390000000     0.074680000000     0.089060000000    -0.057022   
C471     C      0.661810000000     0.060370000000     0.037210000000     0.0605312  
C472     C      0.632570000000     0.067640000000     0.001260000000    -0.031798   
C473     C      0.711700000000     0.085090000000     0.065820000000     0.0605389  
C474     C      0.745390000000     0.085130000000     0.101770000000    -0.0321976  
C475     C      0.707820000000     0.082140000000     0.028310000000    -0.0548231  
C476     C      0.774170000000     0.100670000000     0.108970000000    -0.00126624 
C477     C      0.769690000000     0.140220000000     0.105810000000    -0.00130475 
C478     C      0.665680000000     0.062540000000     0.074740000000    -0.0547224  
C479     C      0.182500000000     0.854780000000     0.461850000000    -0.0322736  
C480     C      0.208480000000     0.834810000000     0.649290000000    -0.0318969  
C481     C      0.203710000000     0.874900000000     0.684940000000    -0.00151438 
C482     C      0.217300000000     0.842080000000     0.688470000000    -0.00165423 
C483     C      0.183050000000     0.831140000000     0.578090000000    -0.0570779  
C484     C      0.219040000000     0.865570000000     0.529280000000    -0.0569792  
C485     C      0.205600000000     0.852080000000     0.591260000000     0.0605007  
C486     C      0.194930000000     0.866450000000     0.645980000000    -0.0320744  
C487     C      0.197140000000     0.843910000000     0.516150000000     0.0603922  
C488     C      0.213740000000     0.840950000000     0.457250000000    -0.0319221  
C489     C      0.179120000000     0.826990000000     0.540860000000    -0.0548887  
C490     C      0.205170000000     0.830890000000     0.418850000000    -0.00192012 
C491     C      0.172040000000     0.844920000000     0.423970000000    -0.00100266 
C492     C      0.223320000000     0.869360000000     0.566550000000    -0.0551225  
C493     C      0.158050000000     0.804040000000     0.955020000000    -0.0324705  
C494     C      0.196990000000     0.839600000000     0.132620000000    -0.0321611  
C495     C      0.175320000000     0.864950000000     0.174390000000    -0.00188477 
C496     C      0.208900000000     0.851750000000     0.169010000000    -0.00123066 
C497     C      0.157020000000     0.822510000000     0.069580000000    -0.0568196  
C498     C      0.186790000000     0.855790000000     0.014630000000    -0.0550516  
C499     C      0.178430000000     0.846000000000     0.078590000000     0.0606364  
C500     C      0.164970000000     0.852530000000     0.137650000000    -0.0316717  
C501     C      0.165230000000     0.832710000000     0.005580000000     0.0613037  
C502     C      0.135340000000     0.828260000000     0.958370000000    -0.0319938  
C503     C      0.150200000000     0.816130000000     0.033340000000    -0.0571989  
C504     C      0.134830000000     0.831010000000     0.917180000000    -3.05512e-05
C505     C      0.144050000000     0.794830000000     0.918440000000    -0.00105363 
C506     C      0.193290000000     0.862430000000     0.050850000000    -0.0550673  
C507     C      0.411070000000     0.978860000000     0.908970000000    -0.032244   
C508     C      0.283050000000     0.877310000000     0.858620000000    -0.0318733  
C509     C      0.250990000000     0.900550000000     0.857160000000    -0.00146734 
C510     C      0.254070000000     0.860600000000     0.861070000000    -0.00154678 
C511     C      0.328980000000     0.923190000000     0.913360000000    -0.0548806  
C512     C      0.361280000000     0.937110000000     0.853160000000    -0.0548793  
C513     C      0.318430000000     0.917090000000     0.878520000000     0.0605088  
C514     C      0.280200000000     0.915630000000     0.854960000000    -0.0321647  
C515     C      0.371820000000     0.942590000000     0.888020000000     0.0606223  
C516     C      0.406060000000     0.936880000000     0.911050000000    -0.0318225  
C517     C      0.355460000000     0.935890000000     0.918200000000    -0.0570589  
C518     C      0.434780000000     0.947230000000     0.908010000000    -0.00153679 
C519     C      0.440180000000     0.991480000000     0.905930000000    -0.00126862 
C520     C      0.334820000000     0.924530000000     0.848310000000    -0.0569247  
C521     C      0.881370000000     0.704660000000     0.017070000000    -0.0322638  
C522     C      0.830800000000     0.659430000000     0.834700000000    -0.0319285  
C523     C      0.834540000000     0.703500000000     0.797850000000    -0.00145625 
C524     C      0.815620000000     0.655980000000     0.800010000000    -0.0016866  
C525     C      0.831750000000     0.684910000000     0.920030000000    -0.0550871  
C526     C      0.877150000000     0.683920000000     0.930010000000    -0.0550485  
C527     C      0.845290000000     0.684060000000     0.889810000000     0.0604437  
C528     C      0.849200000000     0.705230000000     0.832620000000    -0.0321766  
C529     C      0.863030000000     0.683660000000     0.960230000000     0.0604133  
C530     C      0.851900000000     0.659310000000     0.015860000000    -0.0317122  
C531     C      0.840620000000     0.684980000000     0.955020000000    -0.0570341  
C532     C      0.863470000000     0.655110000000     0.050110000000    -0.00173574 
C533     C      0.894450000000     0.702490000000     0.051360000000    -0.00110817 
C534     C      0.868560000000     0.684380000000     0.895030000000    -0.057055   
C535     C      0.832370000000     0.652090000000     0.514410000000    -0.031803   
C536     C      0.868200000000     0.650120000000     0.340710000000    -0.0318417  
C537     C      0.902840000000     0.696060000000     0.300900000000    -0.000591264
C538     C      0.868400000000     0.648040000000     0.299570000000     0.000191567
C539     C      0.877980000000     0.675950000000     0.417110000000    -0.0568857  
C540     C      0.831180000000     0.674240000000     0.426470000000    -0.0552139  
C541     C      0.863910000000     0.675870000000     0.386630000000     0.0607537  
C542     C      0.898210000000     0.694720000000     0.341910000000    -0.0316925  
C543     C      0.845050000000     0.674280000000     0.456860000000     0.0606515  
C544     C      0.848130000000     0.697430000000     0.511570000000    -0.0321597  
C545     C      0.868830000000     0.675610000000     0.452000000000    -0.0569759  
C546     C      0.833130000000     0.696440000000     0.545480000000    -0.00123604 
C547     C      0.816990000000     0.649320000000     0.548640000000    -0.0017928  
C548     C      0.840560000000     0.675100000000     0.391670000000    -0.0548334  
C549     C      0.628520000000     0.573370000000     0.511120000000    -0.0318287  
C550     C      0.728240000000     0.663770000000     0.632230000000    -0.0322095  
C551     C      0.735710000000     0.625970000000     0.669940000000    -0.00135657 
C552     C      0.744530000000     0.670580000000     0.666680000000    -0.00187157 
C553     C      0.699910000000     0.633700000000     0.565930000000    -0.0569644  
C554     C      0.647510000000     0.606730000000     0.580480000000    -0.0569255  
C555     C      0.691330000000     0.629410000000     0.602100000000     0.0605753  
C556     C      0.720060000000     0.620070000000     0.635120000000    -0.0317285  
C557     C      0.656070000000     0.611380000000     0.544320000000     0.0605989  
C558     C      0.618380000000     0.607710000000     0.514400000000    -0.0321323  
C559     C      0.682360000000     0.624960000000     0.537400000000    -0.0549063  
C560     C      0.602010000000     0.597850000000     0.480110000000    -0.00171622 
C561     C      0.612710000000     0.563300000000     0.476490000000    -0.00146361 
C562     C      0.665030000000     0.615910000000     0.609020000000    -0.0549267  
C563     C      0.069670000000     0.755020000000     0.735280000000    -0.0321053  
C564     C      0.943640000000     0.736090000000     0.688080000000    -0.0320381  
C565     C      0.910600000000     0.682680000000     0.671060000000    -0.00168052 
C566     C      0.919560000000     0.727740000000     0.665510000000    -0.00146975 
C567     C      0.999990000000     0.737590000000     0.675630000000    -0.055028   
C568     C      0.006530000000     0.741830000000     0.750770000000    -0.0548801  
C569     C      0.978530000000     0.728380000000     0.698180000000     0.060394   
C570     C      0.935280000000     0.692760000000     0.693130000000    -0.0322681  
C571     C      0.027990000000     0.751490000000     0.728220000000     0.0605631  
C572     C      0.065550000000     0.792450000000     0.736250000000    -0.0321315  
C573     C      0.024570000000     0.749140000000     0.690410000000    -0.0571274  
C574     C      0.088710000000     0.806770000000     0.760870000000    -0.000800951
C575     C      0.093470000000     0.767190000000     0.759430000000    -0.00138923 
C576     C      0.981980000000     0.730430000000     0.736000000000    -0.0570282  
H1       H      0.772710000000     0.037820000000     0.805130000000     0.0427837  
H2       H      0.770420000000     0.090410000000     0.698090000000     0.0330873  
H3       H      0.829820000000     0.072510000000     0.692080000000     0.0327015  
H4       H      0.708600000000     0.960200000000     0.830310000000     0.0337731  
H5       H      0.796030000000     0.111850000000     0.645260000000     0.0331476  
H6       H      0.783180000000     0.991060000000     0.785460000000     0.0327837  
H7       H      0.709400000000     0.982780000000     0.775950000000     0.0332081  
H8       H      0.764290000000     0.946660000000     0.807300000000     0.0370966  
H9       H      0.860530000000     0.116300000000     0.671760000000     0.0372201  
H10      H      0.795130000000     0.076220000000     0.768160000000     0.0393984  
H11      H      0.800790000000     0.135050000000     0.678930000000     0.0372567  
H12      H      0.748140000000     0.992390000000     0.708150000000     0.0395445  
H13      H      0.797550000000     0.106730000000     0.727860000000     0.0364567  
H14      H      0.689490000000     0.937450000000     0.796450000000     0.0371372  
H15      H      0.834330000000     0.099580000000     0.640930000000     0.0331656  
H16      H      0.760630000000     0.968280000000     0.753860000000     0.0368664  
H17      H      0.717530000000     0.963510000000     0.748100000000     0.0361421  
H18      H      0.769730000000     0.030890000000     0.671140000000     0.0427296  
H19      H      0.832770000000     0.096160000000     0.724170000000     0.037054   
H20      H      0.758650000000     0.966590000000     0.837180000000     0.0335901  
H21      H      0.980610000000     0.351120000000     0.506010000000     0.0429036  
H22      H      0.933830000000     0.325290000000     0.628780000000     0.0327345  
H23      H      0.993530000000     0.308080000000     0.617790000000     0.0330085  
H24      H      0.984840000000     0.415700000000     0.464120000000     0.0340121  
H25      H      0.934500000000     0.302100000000     0.682170000000     0.0328016  
H26      H      0.043240000000     0.412090000000     0.523480000000     0.0330008  
H27      H      0.966090000000     0.395080000000     0.520900000000     0.0327467  
H28      H      0.057060000000     0.454760000000     0.495460000000     0.03694    
H29      H      0.965440000000     0.264860000000     0.644140000000     0.0371385  
H30      H      0.963510000000     0.315920000000     0.549170000000     0.0396943  
H31      H      0.905690000000     0.283410000000     0.656800000000     0.0373611  
H32      H      0.008960000000     0.404270000000     0.594590000000     0.0392205  
H33      H      0.928750000000     0.299600000000     0.599200000000     0.0377459  
H34      H      0.979110000000     0.436660000000     0.491610000000     0.036755   
H35      H      0.971760000000     0.290210000000     0.674820000000     0.0330442  
H36      H      0.033970000000     0.431530000000     0.548790000000     0.035517   
H37      H      0.989200000000     0.421710000000     0.547050000000     0.0364131  
H38      H      0.992920000000     0.369030000000     0.637770000000     0.0425847  
H39      H      0.964500000000     0.289360000000     0.592430000000     0.0367112  
H40      H      0.038230000000     0.428330000000     0.466330000000     0.0338963  
H41      H      0.092480000000     0.677190000000     0.272840000000     0.04268    
H42      H      0.035010000000     0.616310000000     0.371010000000     0.0331418  
H43      H      0.112300000000     0.634100000000     0.375050000000     0.0327664  
H44      H      0.110380000000     0.757670000000     0.261290000000     0.0330771  
H45      H      0.036020000000     0.592230000000     0.421560000000     0.0346347  
H46      H      0.150040000000     0.721810000000     0.299440000000     0.0328037  
H47      H      0.084510000000     0.729950000000     0.310060000000     0.0331629  
H48      H      0.177170000000     0.767740000000     0.286760000000     0.0372766  
H49      H      0.098180000000     0.588780000000     0.390450000000     0.0359583  
H50      H      0.075010000000     0.636000000000     0.303290000000     0.0391689  
H51      H      0.021130000000     0.570380000000     0.385030000000     0.0362303  
H52      H      0.111380000000     0.714580000000     0.376670000000     0.0396128  
H53      H      0.046540000000     0.601420000000     0.340030000000     0.0349242  
H54      H      0.111220000000     0.776690000000     0.299000000000     0.0370286  
H55      H      0.092670000000     0.606030000000     0.425210000000     0.0347268  
H56      H      0.149180000000     0.741180000000     0.335780000000     0.0374454  
H57      H      0.110160000000     0.745920000000     0.342260000000     0.0366267  
H58      H      0.093220000000     0.673420000000     0.407030000000     0.0430991  
H59      H      0.090650000000     0.611420000000     0.342620000000     0.0355605  
H60      H      0.152260000000     0.751690000000     0.253880000000     0.0327766  
H61      H      0.631180000000     0.711500000000     0.832270000000     0.039316   
H62      H      0.625600000000     0.636450000000     0.909970000000     0.0331191  
H63      H      0.557190000000     0.639730000000     0.903570000000     0.0328221  
H64      H      0.688490000000     0.792960000000     0.901830000000     0.0343878  
H65      H      0.592210000000     0.594720000000     0.891800000000     0.0335459  
H66      H      0.608560000000     0.744390000000     0.877700000000     0.0328655  
H67      H      0.682270000000     0.752360000000     0.883770000000     0.033028   
H68      H      0.627500000000     0.788130000000     0.851380000000     0.0368127  
H69      H      0.532570000000     0.596510000000     0.930700000000     0.0371645  
H70      H      0.608470000000     0.665340000000     0.840610000000     0.0427598  
H71      H      0.601600000000     0.593100000000     0.937450000000     0.0368398  
H72      H      0.631850000000     0.721610000000     0.947900000000     0.0427784  
H73      H      0.609080000000     0.635380000000     0.951200000000     0.0364304  
H74      H      0.701300000000     0.796300000000     0.857070000000     0.0361629  
H75      H      0.546270000000     0.597030000000     0.887390000000     0.0328929  
H76      H      0.626830000000     0.749150000000     0.836930000000     0.0357927  
H77      H      0.669200000000     0.753610000000     0.840410000000     0.0357329  
H78      H      0.609430000000     0.675500000000     0.956290000000     0.0393195  
H79      H      0.568910000000     0.637210000000     0.947450000000     0.0364279  
H80      H      0.635830000000     0.787120000000     0.897720000000     0.0336458  
H81      H      0.310800000000     0.054480000000     0.325260000000     0.0426349  
H82      H      0.298280000000     0.967430000000     0.284700000000     0.0331435  
H83      H      0.233200000000     0.976410000000     0.286690000000     0.0329258  
H84      H      0.365860000000     0.126030000000     0.275170000000     0.0340179  
H85      H      0.265960000000     0.927370000000     0.263570000000     0.0358354  
H86      H      0.285600000000     0.077960000000     0.259540000000     0.0329051  
H87      H      0.359030000000     0.084940000000     0.257440000000     0.0330626  
H88      H      0.303330000000     0.121080000000     0.232450000000     0.0371696  
H89      H      0.207240000000     0.931580000000     0.311880000000     0.0354129  
H90      H      0.287000000000     0.008290000000     0.333600000000     0.0391359  
H91      H      0.270730000000     0.922600000000     0.310070000000     0.0349711  
H92      H      0.305610000000     0.044250000000     0.209390000000     0.0394108  
H93      H      0.281990000000     0.965090000000     0.326590000000     0.0348725  
H94      H      0.377310000000     0.128330000000     0.229690000000     0.0364628  
H95      H      0.215640000000     0.934430000000     0.265000000000     0.0351479  
H96      H      0.301350000000     0.081530000000     0.216670000000     0.0364272  
H97      H      0.344020000000     0.085430000000     0.215430000000     0.0361361  
H98      H      0.281510000000     0.998160000000     0.217750000000     0.0433338  
H99      H      0.245180000000     0.970030000000     0.327690000000     0.0346612  
H100     H      0.315220000000     0.121000000000     0.276950000000     0.0329805  
H101     H      0.454560000000     0.398130000000     0.139650000000     0.043129   
H102     H      0.453380000000     0.316020000000     0.124650000000     0.0329939  
H103     H      0.379110000000     0.306790000000     0.121660000000     0.0332352  
H104     H      0.513090000000     0.458430000000     0.075570000000     0.0344265  
H105     H      0.425950000000     0.271410000000     0.116610000000     0.0342029  
H106     H      0.431670000000     0.416950000000     0.063900000000     0.0332624  
H107     H      0.500430000000     0.414390000000     0.069510000000     0.0330028  
H108     H      0.453710000000     0.456360000000     0.025460000000     0.0365874  
H109     H      0.362770000000     0.267100000000     0.159670000000     0.0361902  
H110     H      0.433430000000     0.353960000000     0.160510000000     0.0394565  
H111     H      0.436820000000     0.276490000000     0.162620000000     0.0365875  
H112     H      0.444890000000     0.372670000000     0.028830000000     0.0394617  
H113     H      0.437860000000     0.316490000000     0.166070000000     0.0355978  
H114     H      0.522600000000     0.453680000000     0.031630000000     0.037234   
H115     H      0.372000000000     0.264640000000     0.114410000000     0.0350197  
H116     H      0.445680000000     0.413190000000     0.022950000000     0.0360624  
H117     H      0.485550000000     0.411860000000     0.026170000000     0.0360422  
H118     H      0.424090000000     0.328540000000     0.049710000000     0.0431933  
H119     H      0.395310000000     0.311240000000     0.164350000000     0.035766   
H120     H      0.464930000000     0.460360000000     0.071320000000     0.0351915  
H121     H      0.698070000000     0.803110000000     0.633200000000     0.0391891  
H122     H      0.663080000000     0.790440000000     0.506060000000     0.0328004  
H123     H      0.742570000000     0.843680000000     0.505900000000     0.0330976  
H124     H      0.674800000000     0.864940000000     0.699460000000     0.0351091  
H125     H      0.683590000000     0.778570000000     0.459170000000     0.0335104  
H126     H      0.737970000000     0.856600000000     0.663370000000     0.0329096  
H127     H      0.659010000000     0.831890000000     0.654650000000     0.0327809  
H128     H      0.735100000000     0.859000000000     0.731310000000     0.0370016  
H129     H      0.743440000000     0.842660000000     0.438200000000     0.0371701  
H130     H      0.700590000000     0.791130000000     0.570540000000     0.0425267  
H131     H      0.662850000000     0.788330000000     0.438590000000     0.0367698  
H132     H      0.698250000000     0.870050000000     0.594710000000     0.0428235  
H133     H      0.673690000000     0.820960000000     0.485380000000     0.0374014  
H134     H      0.656490000000     0.835250000000     0.722450000000     0.0354733  
H135     H      0.733870000000     0.812540000000     0.458790000000     0.032546   
H136     H      0.714810000000     0.827520000000     0.684890000000     0.0352534  
H137     H      0.669530000000     0.813370000000     0.679790000000     0.0361446  
H138     H      0.699000000000     0.857210000000     0.532060000000     0.0397237  
H139     H      0.721360000000     0.852860000000     0.485020000000     0.0374132  
H140     H      0.731330000000     0.882160000000     0.706390000000     0.0335531  
H141     H      0.690140000000     0.908930000000     0.068650000000     0.0426408  
H142     H      0.730460000000     0.887060000000     0.164250000000     0.0330232  
H143     H      0.652070000000     0.831320000000     0.160980000000     0.0326666  
H144     H      0.725390000000     0.918390000000     0.959480000000     0.0326349  
H145     H      0.727460000000     0.858160000000     0.209950000000     0.0340852  
H146     H      0.653790000000     0.868790000000     0.004830000000     0.0328087  
H147     H      0.733870000000     0.897710000000     0.009390000000     0.0332432  
H148     H      0.655070000000     0.868790000000     0.937140000000     0.0362448  
H149     H      0.651810000000     0.828760000000     0.229650000000     0.0348483  
H150     H      0.688500000000     0.897270000000     0.132670000000     0.0390985  
H151     H      0.728950000000     0.884680000000     0.232990000000     0.0364369  
H152     H      0.691100000000     0.841200000000     0.037470000000     0.0396875  
H153     H      0.706950000000     0.892730000000     0.185610000000     0.0346853  
H154     H      0.736190000000     0.897940000000     0.941830000000     0.0372066  
H155     H      0.668970000000     0.815970000000     0.206710000000     0.0358058  
H156     H      0.666410000000     0.849640000000     0.987150000000     0.037095   
H157     H      0.714010000000     0.866870000000     0.989550000000     0.0371792  
H158     H      0.691170000000     0.830440000000     0.101430000000     0.0430206  
H159     H      0.662460000000     0.861040000000     0.183750000000     0.0355531  
H160     H      0.673540000000     0.899880000000     0.956570000000     0.0337983  
H161     H      0.782100000000     0.735760000000     0.177670000000     0.0391592  
H162     H      0.711540000000     0.734320000000     0.265350000000     0.0330799  
H163     H      0.784150000000     0.800950000000     0.265680000000     0.0330228  
H164     H      0.807800000000     0.673830000000     0.230020000000     0.0358199  
H165     H      0.702600000000     0.768060000000     0.254520000000     0.0347616  
H166     H      0.837370000000     0.755540000000     0.222090000000     0.0330519  
H167     H      0.773650000000     0.681420000000     0.216080000000     0.0330073  
H168     H      0.864010000000     0.740370000000     0.189020000000     0.0359812  
H169     H      0.765920000000     0.823890000000     0.299790000000     0.0369248  
H170     H      0.757810000000     0.756780000000     0.194080000000     0.0428724  
H171     H      0.693230000000     0.757350000000     0.300150000000     0.0362643  
H172     H      0.790980000000     0.724270000000     0.290790000000     0.0434526  
H173     H      0.727350000000     0.747730000000     0.307730000000     0.035892   
H174     H      0.801340000000     0.667220000000     0.182770000000     0.035342   
H175     H      0.754360000000     0.815390000000     0.254320000000     0.0338231  
H176     H      0.825010000000     0.740840000000     0.178820000000     0.0350422  
H177     H      0.788740000000     0.698800000000     0.175410000000     0.0349499  
H178     H      0.766410000000     0.744960000000     0.307190000000     0.0394647  
H179     H      0.769100000000     0.786230000000     0.307930000000     0.0360206  
H180     H      0.855700000000     0.729720000000     0.234790000000     0.035246   
H181     H      0.631410000000     0.919780000000     0.445930000000     0.0427943  
H182     H      0.556010000000     0.919770000000     0.387060000000     0.032857   
H183     H      0.622000000000     0.992850000000     0.387400000000     0.033216   
H184     H      0.639630000000     0.856380000000     0.412730000000     0.0328119  
H185     H      0.544020000000     0.949110000000     0.361760000000     0.0326915  
H186     H      0.682810000000     0.934040000000     0.385560000000     0.0330767  
H187     H      0.609860000000     0.867670000000     0.386730000000     0.0328251  
H188     H      0.703080000000     0.908390000000     0.367580000000     0.0367825  
H189     H      0.595560000000     0.012150000000     0.406070000000     0.0369318  
H190     H      0.607780000000     0.942880000000     0.444420000000     0.0395485  
H191     H      0.528830000000     0.938070000000     0.404910000000     0.0373268  
H192     H      0.631760000000     0.918360000000     0.329190000000     0.0394346  
H193     H      0.565990000000     0.937090000000     0.429140000000     0.0369691  
H194     H      0.629300000000     0.841420000000     0.369350000000     0.0372525  
H195     H      0.587230000000     0.997260000000     0.362330000000     0.03353    
H196     H      0.670180000000     0.916610000000     0.344030000000     0.0364522  
H197     H      0.627440000000     0.877580000000     0.344750000000     0.0366155  
H198     H      0.607930000000     0.941280000000     0.327670000000     0.0427144  
H199     H      0.605080000000     0.980220000000     0.429380000000     0.0367331  
H200     H      0.688630000000     0.900770000000     0.411680000000     0.0335548  
H201     H      0.042960000000     0.505280000000     0.712250000000     0.0429392  
H202     H      0.083730000000     0.564970000000     0.607560000000     0.0330524  
H203     H      0.003150000000     0.533210000000     0.607240000000     0.0327361  
H204     H      0.074350000000     0.538340000000     0.820570000000     0.0338565  
H205     H      0.071890000000     0.578770000000     0.552820000000     0.032585   
H206     H      0.002100000000     0.510820000000     0.763570000000     0.0327636  
H207     H      0.081020000000     0.564840000000     0.769250000000     0.0328647  
H208     H      0.998930000000     0.512650000000     0.831490000000     0.0355294  
H209     H      0.001740000000     0.525930000000     0.540680000000     0.0369172  
H210     H      0.042740000000     0.510700000000     0.646530000000     0.0394386  
H211     H      0.083450000000     0.557720000000     0.540920000000     0.037152   
H212     H      0.040210000000     0.573990000000     0.728220000000     0.0392385  
H213     H      0.064250000000     0.532100000000     0.594970000000     0.0371019  
H214     H      0.077160000000     0.567210000000     0.837260000000     0.0366     
H215     H      0.020480000000     0.558840000000     0.552830000000     0.0333886  
H216     H      0.012610000000     0.542120000000     0.781090000000     0.0360001  
H217     H      0.057640000000     0.573010000000     0.784260000000     0.0350002  
H218     H      0.041450000000     0.580200000000     0.662390000000     0.0425863  
H219     H      0.016020000000     0.513120000000     0.594920000000     0.0371565  
H220     H      0.016870000000     0.498360000000     0.815690000000     0.0352493  
H221     H      0.035690000000     0.525450000000     0.247560000000     0.0396696  
H222     H      0.074980000000     0.537970000000     0.123850000000     0.0326242  
H223     H      0.995560000000     0.485460000000     0.118480000000     0.0328042  
H224     H      0.057170000000     0.468280000000     0.323300000000     0.0329382  
H225     H      0.058200000000     0.553970000000     0.077950000000     0.0340125  
H226     H      0.994430000000     0.466340000000     0.274800000000     0.0329913  
H227     H      0.075200000000     0.499410000000     0.274490000000     0.0327022  
H228     H      0.993980000000     0.466280000000     0.342480000000     0.0369333  
H229     H      0.997020000000     0.488860000000     0.050620000000     0.0370572  
H230     H      0.034950000000     0.537820000000     0.184610000000     0.0426118  
H231     H      0.076730000000     0.542130000000     0.056170000000     0.0360181  
H232     H      0.037040000000     0.458940000000     0.210750000000     0.0425289  
H233     H      0.063790000000     0.508250000000     0.100550000000     0.0363268  
H234     H      0.075970000000     0.499560000000     0.342010000000     0.0369156  
H235     H      0.003110000000     0.517200000000     0.073730000000     0.0327648  
H236     H      0.013000000000     0.497660000000     0.293860000000     0.0377827  
H237     H      0.062020000000     0.517730000000     0.293510000000     0.037533   
H238     H      0.037730000000     0.472090000000     0.147700000000     0.0392537  
H239     H      0.017810000000     0.477840000000     0.097330000000     0.0357841  
H240     H      0.007030000000     0.447990000000     0.323660000000     0.032249   
H241     H      0.969160000000     0.626990000000     0.996250000000     0.0426643  
H242     H      0.987600000000     0.671220000000     0.120290000000     0.0332123  
H243     H      0.924020000000     0.596470000000     0.120340000000     0.032758   
H244     H      0.025430000000     0.611290000000     0.940390000000     0.0327736  
H245     H      0.967090000000     0.662920000000     0.179390000000     0.033028   
H246     H      0.956810000000     0.567410000000     0.994970000000     0.0328036  
H247     H      0.032270000000     0.630140000000     0.000450000000     0.0331111  
H248     H      0.971720000000     0.543250000000     0.957900000000     0.0372423  
H249     H      0.898810000000     0.610290000000     0.157310000000     0.0373272  
H250     H      0.953100000000     0.640730000000     0.047330000000     0.0397698  
H251     H      0.962850000000     0.686550000000     0.156300000000     0.0372993  
H252     H      0.999370000000     0.593990000000     0.070870000000     0.0398047  
H253     H      0.958780000000     0.665910000000     0.097840000000     0.0370631  
H254     H      0.048640000000     0.606500000000     0.964200000000     0.0371974  
H255     H      0.927560000000     0.615680000000     0.179550000000     0.0328     
H256     H      0.980690000000     0.563150000000     0.018300000000     0.0377281  
H257     H      0.026170000000     0.600950000000     0.021690000000     0.0372144  
H258     H      0.984170000000     0.608570000000     0.121970000000     0.0427922  
H259     H      0.920520000000     0.620970000000     0.098040000000     0.0375944  
H260     H      0.978010000000     0.572400000000     0.936850000000     0.0327458  
H261     H      0.363630000000     0.126320000000     0.992350000000     0.0391429  
H262     H      0.328520000000     0.121590000000     0.865470000000     0.0328707  
H263     H      0.408730000000     0.171370000000     0.868410000000     0.0331084  
H264     H      0.342190000000     0.186210000000     0.067750000000     0.0358759  
H265     H      0.347660000000     0.110140000000     0.816270000000     0.0337144  
H266     H      0.405160000000     0.178150000000     0.025490000000     0.0330669  
H267     H      0.326450000000     0.154950000000     0.021020000000     0.0328174  
H268     H      0.402830000000     0.177840000000     0.094320000000     0.0364032  
H269     H      0.410260000000     0.173740000000     0.800780000000     0.0373094  
H270     H      0.365350000000     0.116890000000     0.928100000000     0.0425792  
H271     H      0.328980000000     0.123050000000     0.797850000000     0.0366155  
H272     H      0.366300000000     0.196050000000     0.962550000000     0.0431648  
H273     H      0.341110000000     0.153320000000     0.848140000000     0.0371947  
H274     H      0.325470000000     0.156060000000     0.089810000000     0.0349965  
H275     H      0.399340000000     0.142460000000     0.818030000000     0.0327085  
H276     H      0.381820000000     0.148710000000     0.045870000000     0.0346849  
H277     H      0.337170000000     0.135610000000     0.043360000000     0.0356131  
H278     H      0.366450000000     0.185900000000     0.898350000000     0.0397259  
H279     H      0.388860000000     0.182940000000     0.849630000000     0.0371662  
H280     H      0.401210000000     0.203020000000     0.071870000000     0.0343676  
H281     H      0.371470000000     0.251890000000     0.424520000000     0.0430348  
H282     H      0.325810000000     0.173070000000     0.521390000000     0.0328629  
H283     H      0.404730000000     0.227040000000     0.528210000000     0.0328248  
H284     H      0.406220000000     0.253880000000     0.317030000000     0.0329651  
H285     H      0.331870000000     0.187960000000     0.582830000000     0.0336827  
H286     H      0.334040000000     0.210500000000     0.365710000000     0.0328384  
H287     H      0.412940000000     0.233600000000     0.369160000000     0.0328515  
H288     H      0.334100000000     0.207780000000     0.298350000000     0.0368754  
H289     H      0.406420000000     0.211910000000     0.590700000000     0.0362005  
H290     H      0.366810000000     0.242440000000     0.489780000000     0.0430516  
H291     H      0.327710000000     0.156730000000     0.583680000000     0.0368372  
H292     H      0.369540000000     0.181300000000     0.403840000000     0.0392324  
H293     H      0.348780000000     0.162540000000     0.526130000000     0.0352024  
H294     H      0.413930000000     0.230590000000     0.301580000000     0.0373328  
H295     H      0.387390000000     0.226910000000     0.587040000000     0.0346223  
H296     H      0.344200000000     0.188850000000     0.350100000000     0.0371325  
H297     H      0.390800000000     0.202480000000     0.351960000000     0.0365317  
H298     H      0.366490000000     0.172650000000     0.468830000000     0.0388737  
H299     H      0.394200000000     0.193680000000     0.530290000000     0.0363449  
H300     H      0.354850000000     0.239220000000     0.315220000000     0.0338325  
H301     H      0.410460000000     0.093710000000     0.555530000000     0.0393105  
H302     H      0.486590000000     0.085850000000     0.527550000000     0.0327099  
H303     H      0.422220000000     0.011990000000     0.534330000000     0.0331394  
H304     H      0.427800000000     0.126990000000     0.686200000000     0.0336495  
H305     H      0.486030000000     0.064820000000     0.471930000000     0.0340828  
H306     H      0.373850000000     0.063890000000     0.625910000000     0.0332104  
H307     H      0.449260000000     0.126460000000     0.631100000000     0.032753   
H308     H      0.356720000000     0.090480000000     0.652070000000     0.0372627  
H309     H      0.447970000000     0.993890000000     0.507180000000     0.0369626  
H310     H      0.427290000000     0.074560000000     0.513310000000     0.0427948  
H311     H      0.512170000000     0.068420000000     0.499390000000     0.0367403  
H312     H      0.435540000000     0.066550000000     0.645700000000     0.0428324  
H313     H      0.488190000000     0.062180000000     0.555030000000     0.0361854  
H314     H      0.433090000000     0.153280000000     0.658160000000     0.0369941  
H315     H      0.441880000000     0.013350000000     0.476970000000     0.0340127  
H316     H      0.381780000000     0.091910000000     0.599790000000     0.0361603  
H317     H      0.425960000000     0.128590000000     0.602960000000     0.0366557  
H318     H      0.453170000000     0.048150000000     0.603440000000     0.0392162  
H319     H      0.450840000000     0.019380000000     0.559150000000     0.0355752  
H320     H      0.376900000000     0.085300000000     0.682410000000     0.0337246  
H321     H      0.115050000000     0.409950000000     0.835720000000     0.0394365  
H322     H      0.045570000000     0.419010000000     0.911570000000     0.033112   
H323     H      0.120580000000     0.482090000000     0.912250000000     0.032892   
H324     H      0.135970000000     0.348750000000     0.899850000000     0.0335656  
H325     H      0.039670000000     0.453120000000     0.891700000000     0.0351693  
H326     H      0.168670000000     0.428130000000     0.887510000000     0.032874   
H327     H      0.101450000000     0.356110000000     0.882720000000     0.0331254  
H328     H      0.194030000000     0.410350000000     0.860070000000     0.037289   
H329     H      0.103610000000     0.509180000000     0.938020000000     0.0363131  
H330     H      0.093480000000     0.434640000000     0.844310000000     0.0432255  
H331     H      0.029110000000     0.446740000000     0.937790000000     0.0357574  
H332     H      0.119360000000     0.403600000000     0.951540000000     0.0426615  
H333     H      0.060260000000     0.434480000000     0.953580000000     0.0352765  
H334     H      0.126220000000     0.337520000000     0.854400000000     0.0366292  
H335     H      0.095080000000     0.499560000000     0.891900000000     0.034366   
H336     H      0.156730000000     0.413690000000     0.843880000000     0.0367737  
H337     H      0.117140000000     0.371440000000     0.841060000000     0.0364362  
H338     H      0.097470000000     0.428080000000     0.960090000000     0.0391644  
H339     H      0.102990000000     0.470580000000     0.953940000000     0.0352729  
H340     H      0.180780000000     0.397020000000     0.903450000000     0.0326271  
H341     H      0.310390000000     0.259660000000     0.684620000000     0.0395852  
H342     H      0.234820000000     0.262570000000     0.738630000000     0.0329961  
H343     H      0.301680000000     0.334920000000     0.743680000000     0.033316   
H344     H      0.312680000000     0.194750000000     0.768760000000     0.032903   
H345     H      0.224540000000     0.293380000000     0.714020000000     0.0334025  
H346     H      0.359700000000     0.272100000000     0.742050000000     0.0331974  
H347     H      0.284960000000     0.208260000000     0.741670000000     0.0328858  
H348     H      0.377870000000     0.244410000000     0.724580000000     0.0366549  
H349     H      0.275580000000     0.354640000000     0.761860000000     0.0373427  
H350     H      0.287890000000     0.283880000000     0.682410000000     0.0429558  
H351     H      0.207890000000     0.281240000000     0.756000000000     0.0375175  
H352     H      0.307540000000     0.259490000000     0.801300000000     0.0428975  
H353     H      0.243920000000     0.278700000000     0.781690000000     0.037206   
H354     H      0.302290000000     0.180080000000     0.725220000000     0.0372825  
H355     H      0.267820000000     0.340480000000     0.717600000000     0.0341301  
H356     H      0.346850000000     0.255010000000     0.700330000000     0.036417   
H357     H      0.303150000000     0.217490000000     0.700170000000     0.0367038  
H358     H      0.285170000000     0.283800000000     0.799120000000     0.0396112  
H359     H      0.283690000000     0.321620000000     0.784720000000     0.0369009  
H360     H      0.363150000000     0.237540000000     0.768510000000     0.0338156  
H361     H      0.481070000000     0.461100000000     0.754060000000     0.0425497  
H362     H      0.542160000000     0.490330000000     0.651740000000     0.0329881  
H363     H      0.508950000000     0.537090000000     0.662000000000     0.0327433  
H364     H      0.509790000000     0.460840000000     0.866820000000     0.0327013  
H365     H      0.560380000000     0.521110000000     0.603680000000     0.0325211  
H366     H      0.478650000000     0.499250000000     0.812080000000     0.0327387  
H367     H      0.538620000000     0.482020000000     0.816440000000     0.0330733  
H368     H      0.478310000000     0.501880000000     0.879270000000     0.0370895  
H369     H      0.505860000000     0.538720000000     0.594450000000     0.0361202  
H370     H      0.488460000000     0.471970000000     0.689550000000     0.0393554  
H371     H      0.538580000000     0.491040000000     0.584020000000     0.0371927  
H372     H      0.545420000000     0.533950000000     0.781220000000     0.0397457  
H373     H      0.510080000000     0.479020000000     0.635450000000     0.0360284  
H374     H      0.539820000000     0.485290000000     0.884130000000     0.0372515  
H375     H      0.538060000000     0.553590000000     0.611220000000     0.0339072  
H376     H      0.509220000000     0.522950000000     0.829760000000     0.0376093  
H377     H      0.545150000000     0.512670000000     0.832480000000     0.0371188  
H378     H      0.553810000000     0.544120000000     0.716690000000     0.0427391  
H379     H      0.490810000000     0.506210000000     0.641550000000     0.0367308  
H380     H      0.471480000000     0.471220000000     0.863440000000     0.0332414  
H381     H      0.565850000000     0.574660000000     0.203820000000     0.0386748  
H382     H      0.530470000000     0.500090000000     0.296940000000     0.0330387  
H383     H      0.503200000000     0.551930000000     0.305340000000     0.0327186  
H384     H      0.510170000000     0.553860000000     0.087840000000     0.0406877  
H385     H      0.500980000000     0.485760000000     0.347260000000     0.0339927  
H386     H      0.555370000000     0.526440000000     0.132330000000     0.0384716  
H387     H      0.517550000000     0.568030000000     0.147980000000     0.0329623  
H388     H      0.582420000000     0.579390000000     0.101060000000     0.0285295  
H389     H      0.506240000000     0.551270000000     0.373270000000     0.0370079  
H390     H      0.556880000000     0.564990000000     0.268410000000     0.0388308  
H391     H      0.532870000000     0.498460000000     0.364450000000     0.0366552  
H392     H      0.495900000000     0.506580000000     0.176690000000     0.0444957  
H393     H      0.550420000000     0.530740000000     0.317200000000     0.0366328  
H394     H      0.536160000000     0.585640000000     0.083180000000     0.0284086  
H395     H      0.482670000000     0.521870000000     0.353710000000     0.0330845  
H396     H      0.575700000000     0.556330000000     0.153700000000     0.0305716  
H397     H      0.551800000000     0.586020000000     0.142920000000     0.0338898  
H398     H      0.486250000000     0.497450000000     0.241560000000     0.0433061  
H399     H      0.534650000000     0.560870000000     0.322070000000     0.03564    
H400     H      0.578260000000     0.550490000000     0.082340000000     0.0373564  
H401     H      0.856800000000     0.166190000000     0.876300000000     0.039261   
H402     H      0.893460000000     0.162790000000     0.997960000000     0.0327143  
H403     H      0.872190000000     0.219260000000     0.998120000000     0.0330634  
H404     H      0.930260000000     0.217160000000     0.786320000000     0.0344039  
H405     H      0.864090000000     0.149460000000     0.046750000000     0.0363717  
H406     H      0.871480000000     0.221530000000     0.843230000000     0.0331038  
H407     H      0.918390000000     0.188110000000     0.836890000000     0.0326813  
H408     H      0.865870000000     0.218520000000     0.775840000000     0.0373272  
H409     H      0.875410000000     0.220460000000     0.067430000000     0.0356548  
H410     H      0.849530000000     0.159270000000     0.941690000000     0.043218   
H411     H      0.895020000000     0.164670000000     0.067270000000     0.0342542  
H412     H      0.928860000000     0.233800000000     0.896840000000     0.0426497  
H413     H      0.914100000000     0.193570000000     0.017160000000     0.0351028  
H414     H      0.913530000000     0.185300000000     0.769290000000     0.0359444  
H415     H      0.848120000000     0.194120000000     0.047560000000     0.0348929  
H416     H      0.858210000000     0.189780000000     0.825730000000     0.036084   
H417     H      0.885580000000     0.170300000000     0.822190000000     0.0362659  
H418     H      0.922230000000     0.226060000000     0.962290000000     0.0390955  
H419     H      0.902190000000     0.225390000000     0.017220000000     0.0342568  
H420     H      0.897950000000     0.239640000000     0.790450000000     0.0332193  
H421     H      0.819610000000     0.145840000000     0.466010000000     0.0393186  
H422     H      0.811480000000     0.179210000000     0.335640000000     0.0330822  
H423     H      0.836650000000     0.125400000000     0.339480000000     0.0328253  
H424     H      0.874810000000     0.227170000000     0.531490000000     0.0328484  
H425     H      0.787510000000     0.145970000000     0.291490000000     0.0323229  
H426     H      0.887230000000     0.170940000000     0.482540000000     0.03277    
H427     H      0.839510000000     0.203370000000     0.490730000000     0.0329211  
H428     H      0.895240000000     0.175920000000     0.549400000000     0.0362735  
H429     H      0.832550000000     0.120240000000     0.272410000000     0.0369595  
H430     H      0.802260000000     0.131010000000     0.405120000000     0.0425346  
H431     H      0.807430000000     0.175230000000     0.268210000000     0.0370587  
H432     H      0.886930000000     0.208480000000     0.419270000000     0.0427968  
H433     H      0.841290000000     0.187420000000     0.313560000000     0.0377828  
H434     H      0.846690000000     0.208140000000     0.557860000000     0.0372297  
H435     H      0.802840000000     0.112320000000     0.294190000000     0.0330661  
H436     H      0.858330000000     0.155110000000     0.509030000000     0.036681   
H437     H      0.830530000000     0.174030000000     0.513970000000     0.0360744  
H438     H      0.870280000000     0.192840000000     0.358430000000     0.0399114  
H439     H      0.856530000000     0.154850000000     0.316050000000     0.0375793  
H440     H      0.907520000000     0.205430000000     0.525480000000     0.0339972  
H441     H      0.149300000000     0.350440000000     0.590350000000     0.0388007  
H442     H      0.182080000000     0.312630000000     0.490460000000     0.0329473  
H443     H      0.201440000000     0.389450000000     0.480600000000     0.0327921  
H444     H      0.212650000000     0.388490000000     0.698470000000     0.040429   
H445     H      0.208220000000     0.327140000000     0.437220000000     0.0350064  
H446     H      0.167670000000     0.316120000000     0.658410000000     0.0387474  
H447     H      0.200960000000     0.394450000000     0.640050000000     0.0331434  
H448     H      0.140230000000     0.340830000000     0.693300000000     0.0285804  
H449     H      0.193930000000     0.383400000000     0.412850000000     0.0366036  
H450     H      0.153680000000     0.348690000000     0.524580000000     0.03873    
H451     H      0.175810000000     0.307350000000     0.422800000000     0.0356116  
H452     H      0.222960000000     0.356610000000     0.605440000000     0.0443799  
H453     H      0.159220000000     0.320700000000     0.472790000000     0.03595    
H454     H      0.186780000000     0.394180000000     0.707280000000     0.028778   
H455     H      0.221640000000     0.383040000000     0.429270000000     0.033704   
H456     H      0.144750000000     0.323560000000     0.639880000000     0.0305821  
H457     H      0.167170000000     0.377520000000     0.649590000000     0.0342599  
H458     H      0.228010000000     0.356220000000     0.539330000000     0.0433128  
H459     H      0.170190000000     0.364540000000     0.467230000000     0.0349448  
H460     H      0.146510000000     0.317080000000     0.710810000000     0.0373683  
H461     H      0.185060000000     0.335910000000     0.005530000000     0.0398104  
H462     H      0.192410000000     0.296820000000     0.134720000000     0.0330009  
H463     H      0.216440000000     0.374920000000     0.125530000000     0.0328377  
H464     H      0.227170000000     0.304230000000     0.921110000000     0.0322878  
H465     H      0.169590000000     0.304430000000     0.181680000000     0.033542   
H466     H      0.251830000000     0.372490000000     0.975370000000     0.0327636  
H467     H      0.197530000000     0.293870000000     0.971350000000     0.0331324  
H468     H      0.251730000000     0.375220000000     0.908080000000     0.0368895  
H469     H      0.217240000000     0.378650000000     0.193360000000     0.035853   
H470     H      0.175140000000     0.335960000000     0.069820000000     0.0429344  
H471     H      0.194220000000     0.300680000000     0.202790000000     0.0370749  
H472     H      0.253240000000     0.333830000000     0.034210000000     0.0425206  
H473     H      0.223020000000     0.320140000000     0.152690000000     0.0354792  
H474     H      0.196110000000     0.295550000000     0.903680000000     0.0370244  
H475     H      0.185940000000     0.359450000000     0.174430000000     0.0349656  
H476     H      0.220440000000     0.363010000000     0.957710000000     0.0376098  
H477     H      0.187750000000     0.315710000000     0.955080000000     0.0374652  
H478     H      0.244220000000     0.335680000000     0.098550000000     0.0392978  
H479     H      0.236800000000     0.365080000000     0.147350000000     0.0365126  
H480     H      0.261590000000     0.353490000000     0.924050000000     0.0330894  
H481     H      0.001420000000     0.256160000000     0.194330000000     0.0394177  
H482     H      0.075720000000     0.327430000000     0.272060000000     0.0331652  
H483     H      0.068610000000     0.254780000000     0.277830000000     0.0329199  
H484     H      0.916750000000     0.233530000000     0.254180000000     0.0336235  
H485     H      0.117240000000     0.335610000000     0.255070000000     0.0354649  
H486     H      0.966230000000     0.202810000000     0.244080000000     0.0329274  
H487     H      0.958500000000     0.268190000000     0.238360000000     0.0330756  
H488     H      0.923680000000     0.177030000000     0.214350000000     0.037091   
H489     H      0.112600000000     0.274400000000     0.306200000000     0.0361363  
H490     H      0.047610000000     0.279290000000     0.205610000000     0.043218   
H491     H      0.119850000000     0.346220000000     0.300880000000     0.0355521  
H492     H      0.987470000000     0.251780000000     0.309350000000     0.0426569  
H493     H      0.076690000000     0.314050000000     0.315170000000     0.0352614  
H494     H      0.915710000000     0.242770000000     0.208290000000     0.0365122  
H495     H      0.111750000000     0.281000000000     0.259130000000     0.0346108  
H496     H      0.963910000000     0.214760000000     0.200370000000     0.0364214  
H497     H      0.959500000000     0.252940000000     0.197040000000     0.0362853  
H498     H      0.033740000000     0.275320000000     0.320590000000     0.0392647  
H499     H      0.072830000000     0.272850000000     0.318430000000     0.0351045  
H500     H      0.922180000000     0.188860000000     0.258210000000     0.0327152  
H501     H      0.368140000000     0.420010000000     0.335170000000     0.0429614  
H502     H      0.410930000000     0.409410000000     0.449180000000     0.0334222  
H503     H      0.393640000000     0.468810000000     0.457170000000     0.0328943  
H504     H      0.292410000000     0.358840000000     0.295580000000     0.0331463  
H505     H      0.428860000000     0.432290000000     0.505500000000     0.0329415  
H506     H      0.319050000000     0.428940000000     0.346820000000     0.0328659  
H507     H      0.311390000000     0.355830000000     0.352140000000     0.0333261  
H508     H      0.276080000000     0.411040000000     0.318670000000     0.0372762  
H509     H      0.436030000000     0.497210000000     0.484820000000     0.0373251  
H510     H      0.403420000000     0.439400000000     0.378730000000     0.0399563  
H511     H      0.454420000000     0.437480000000     0.475450000000     0.0373892  
H512     H      0.314290000000     0.390120000000     0.423340000000     0.0398951  
H513     H      0.429880000000     0.437650000000     0.422720000000     0.0372662  
H514     H      0.267660000000     0.336580000000     0.324910000000     0.0374181  
H515     H      0.417330000000     0.468900000000     0.510810000000     0.0327015  
H516     H      0.294250000000     0.405280000000     0.375120000000     0.0375156  
H517     H      0.289660000000     0.361690000000     0.378360000000     0.0369813  
H518     H      0.349650000000     0.408600000000     0.466900000000     0.0429346  
H519     H      0.419490000000     0.473500000000     0.427700000000     0.0379254  
H520     H      0.297890000000     0.405860000000     0.291910000000     0.0331205  
H521     H      0.507960000000     0.000700000000     0.720170000000     0.0430446  
H522     H      0.524220000000     0.957480000000     0.616910000000     0.0331168  
H523     H      0.577240000000     0.036450000000     0.615530000000     0.0327691  
H524     H      0.508060000000     0.967000000000     0.829040000000     0.0344551  
H525     H      0.550110000000     0.966950000000     0.562630000000     0.0324217  
H526     H      0.553100000000     0.039690000000     0.771440000000     0.0327282  
H527     H      0.529520000000     0.961720000000     0.778970000000     0.0329352  
H528     H      0.556850000000     0.042900000000     0.840040000000     0.0347296  
H529     H      0.572180000000     0.037770000000     0.548690000000     0.0368516  
H530     H      0.513800000000     0.000260000000     0.654600000000     0.0393859  
H531     H      0.517950000000     0.957760000000     0.549970000000     0.0371478  
H532     H      0.578170000000     0.999950000000     0.737800000000     0.0391651  
H533     H      0.512900000000     0.978620000000     0.603180000000     0.0371307  
H534     H      0.535240000000     0.966700000000     0.847660000000     0.0360578  
H535     H      0.584320000000     0.017340000000     0.562020000000     0.0333665  
H536     H      0.573780000000     0.029410000000     0.790890000000     0.0356116  
H537     H      0.560580000000     0.985380000000     0.794950000000     0.0343832  
H538     H      0.583180000000     0.997870000000     0.672130000000     0.0425159  
H539     H      0.544620000000     0.025820000000     0.602530000000     0.03724    
H540     H      0.525070000000     0.026220000000     0.822210000000     0.0360279  
H541     H      0.462160000000     0.005290000000     0.161910000000     0.0391578  
H542     H      0.463090000000     0.970310000000     0.284740000000     0.0326589  
H543     H      0.516770000000     0.049110000000     0.282440000000     0.0331939  
H544     H      0.515200000000     0.978730000000     0.078030000000     0.0360664  
H545     H      0.456310000000     0.990050000000     0.337780000000     0.0334195  
H546     H      0.511060000000     0.043460000000     0.120880000000     0.0330708  
H547     H      0.487120000000     0.965420000000     0.128790000000     0.0326764  
H548     H      0.505470000000     0.038430000000     0.052260000000     0.0362641  
H549     H      0.522980000000     0.049180000000     0.349470000000     0.0372309  
H550     H      0.457320000000     0.008120000000     0.227470000000     0.0424896  
H551     H      0.468030000000     0.969360000000     0.351610000000     0.0368556  
H552     H      0.532490000000     0.004890000000     0.180100000000     0.0432002  
H553     H      0.495650000000     0.980680000000     0.297870000000     0.0373255  
H554     H      0.483430000000     0.962090000000     0.060150000000     0.0347059  
H555     H      0.490900000000     0.040220000000     0.336650000000     0.0325831  
H556     H      0.479970000000     0.019870000000     0.104870000000     0.0344784  
H557     H      0.466550000000     0.975780000000     0.109160000000     0.0355288  
H558     H      0.526810000000     0.006020000000     0.245600000000     0.0396899  
H559     H      0.527770000000     0.027810000000     0.296680000000     0.0372677  
H560     H      0.532500000000     0.037900000000     0.071030000000     0.0344772  
H561     H      0.649460000000     0.055290000000     0.092900000000     0.0432607  
H562     H      0.734060000000     0.133030000000     0.082310000000     0.0330321  
H563     H      0.741310000000     0.067430000000     0.087460000000     0.0332448  
H564     H      0.595540000000     0.059760000000     0.020200000000     0.0347543  
H565     H      0.779170000000     0.149070000000     0.079740000000     0.0340707  
H566     H      0.631760000000     0.012860000000     0.019900000000     0.0331003  
H567     H      0.640560000000     0.086230000000     0.015310000000     0.0330207  
H568     H      0.593070000000     0.996940000000     0.978300000000     0.0354658  
H569     H      0.779320000000     0.090470000000     0.129300000000     0.0360864  
H570     H      0.692860000000     0.076560000000     0.118140000000     0.0394028  
H571     H      0.771810000000     0.155710000000     0.123970000000     0.0367926  
H572     H      0.680610000000     0.068160000000     0.984910000000     0.0392961  
H573     H      0.730880000000     0.117470000000     0.125120000000     0.0356819  
H574     H      0.602010000000     0.069370000000     0.973790000000     0.0361808  
H575     H      0.784520000000     0.101780000000     0.083530000000     0.0351312  
H576     H      0.637550000000     0.029290000000     0.977310000000     0.0352545  
H577     H      0.642430000000     0.070900000000     0.974660000000     0.0350192  
H578     H      0.724040000000     0.089970000000     0.010130000000     0.0431819  
H579     H      0.734940000000     0.079750000000     0.128040000000     0.0358056  
H580     H      0.588830000000     0.004440000000     0.023690000000     0.0356457  
H581     H      0.240430000000     0.885890000000     0.576270000000     0.0425312  
H582     H      0.166720000000     0.853860000000     0.478560000000     0.0326477  
H583     H      0.221210000000     0.829540000000     0.470510000000     0.0329244  
H584     H      0.223420000000     0.891440000000     0.684300000000     0.0334109  
H585     H      0.154360000000     0.826170000000     0.426550000000     0.0342897  
H586     H      0.220680000000     0.828160000000     0.636210000000     0.0330667  
H587     H      0.197030000000     0.883060000000     0.630440000000     0.0326405  
H588     H      0.214350000000     0.824970000000     0.703390000000     0.0372051  
H589     H      0.222300000000     0.834760000000     0.402780000000     0.0371328  
H590     H      0.232860000000     0.879470000000     0.510890000000     0.0392342  
H591     H      0.166720000000     0.858170000000     0.411150000000     0.0361452  
H592     H      0.168550000000     0.817970000000     0.596450000000     0.0394955  
H593     H      0.197970000000     0.874950000000     0.460210000000     0.0366868  
H594     H      0.190980000000     0.881110000000     0.697340000000     0.0367908  
H595     H      0.192590000000     0.809980000000     0.420230000000     0.0330865  
H596     H      0.188420000000     0.818850000000     0.649580000000     0.0369917  
H597     H      0.174350000000     0.851580000000     0.645930000000     0.0373055  
H598     H      0.161860000000     0.810610000000     0.531150000000     0.0425869  
H599     H      0.229560000000     0.860940000000     0.455480000000     0.0356728  
H600     H      0.238150000000     0.855870000000     0.688350000000     0.0325447  
H601     H      0.209910000000     0.880460000000     0.057400000000     0.0434072  
H602     H      0.178130000000     0.808420000000     0.951510000000     0.0384181  
H603     H      0.135480000000     0.844830000000     0.971340000000     0.0330381  
H604     H      0.187920000000     0.885650000000     0.170190000000     0.033219   
H605     H      0.152470000000     0.785140000000     0.902970000000     0.037405   
H606     H      0.212270000000     0.840220000000     0.115070000000     0.0330309  
H607     H      0.156470000000     0.862840000000     0.123810000000     0.0327504  
H608     H      0.215730000000     0.839900000000     0.182530000000     0.0365199  
H609     H      0.114950000000     0.824470000000     0.908090000000     0.0281029  
H610     H      0.198380000000     0.868800000000     0.993510000000     0.0445512  
H611     H      0.123760000000     0.780540000000     0.923980000000     0.0284962  
H612     H      0.145450000000     0.809270000000     0.090450000000     0.0389063  
H613     H      0.148820000000     0.788280000000     0.974890000000     0.0304128  
H614     H      0.159020000000     0.862260000000     0.191490000000     0.0372765  
H615     H      0.146500000000     0.851440000000     0.910100000000     0.0408043  
H616     H      0.182210000000     0.819380000000     0.136880000000     0.036711   
H617     H      0.149590000000     0.832600000000     0.142160000000     0.0359913  
H618     H      0.133220000000     0.798360000000     0.026970000000     0.0387712  
H619     H      0.117880000000     0.810770000000     0.967550000000     0.033896   
H620     H      0.225770000000     0.870750000000     0.163940000000     0.0343332  
H621     H      0.327160000000     0.920070000000     0.821100000000     0.0394895  
H622     H      0.404870000000     0.991100000000     0.895030000000     0.0333171  
H623     H      0.396030000000     0.917620000000     0.898790000000     0.0329288  
H624     H      0.245140000000     0.901220000000     0.885500000000     0.0347023  
H625     H      0.445750000000     0.996850000000     0.877190000000     0.0347144  
H626     H      0.291950000000     0.867740000000     0.873450000000     0.0329775  
H627     H      0.286940000000     0.934630000000     0.867150000000     0.0332528  
H628     H      0.248410000000     0.842610000000     0.846430000000     0.0373085  
H629     H      0.439870000000     0.935510000000     0.925450000000     0.0370077  
H630     H      0.373640000000     0.942150000000     0.829720000000     0.0431485  
H631     H      0.448910000000     0.009230000000     0.922130000000     0.0364308  
H632     H      0.316600000000     0.917580000000     0.936830000000     0.0430099  
H633     H      0.405620000000     0.977450000000     0.938040000000     0.0359772  
H634     H      0.243190000000     0.909960000000     0.839640000000     0.0369155  
H635     H      0.439360000000     0.944940000000     0.879590000000     0.0338607  
H636     H      0.288940000000     0.879180000000     0.829680000000     0.0364137  
H637     H      0.286110000000     0.918310000000     0.826000000000     0.0363768  
H638     H      0.363120000000     0.939940000000     0.945420000000     0.0393868  
H639     H      0.400660000000     0.935080000000     0.940200000000     0.0359293  
H640     H      0.248710000000     0.855780000000     0.889990000000     0.0339579  
H641     H      0.879700000000     0.684310000000     0.872150000000     0.0392819  
H642     H      0.895690000000     0.721120000000     0.001020000000     0.0327454  
H643     H      0.844230000000     0.641930000000     0.998870000000     0.0328218  
H644     H      0.816950000000     0.704010000000     0.805170000000     0.0341388  
H645     H      0.912260000000     0.702590000000     0.043470000000     0.0340127  
H646     H      0.819960000000     0.642270000000     0.851850000000     0.0330254  
H647     H      0.852020000000     0.722060000000     0.848230000000     0.0327114  
H648     H      0.814360000000     0.639700000000     0.784670000000     0.0373595  
H649     H      0.847870000000     0.639730000000     0.066160000000     0.0371777  
H650     H      0.894620000000     0.683300000000     0.933630000000     0.0426611  
H651     H      0.899940000000     0.719460000000     0.068490000000     0.0359831  
H652     H      0.814030000000     0.685060000000     0.916410000000     0.0426275  
H653     H      0.865640000000     0.708300000000     0.024700000000     0.0363938  
H654     H      0.846640000000     0.720380000000     0.780830000000     0.0363231  
H655     H      0.876880000000     0.648450000000     0.042130000000     0.0325875  
H656     H      0.849420000000     0.661020000000     0.827420000000     0.0366295  
H657     H      0.868340000000     0.707990000000     0.825520000000     0.0364918  
H658     H      0.829650000000     0.685390000000     0.977910000000     0.039206   
H659     H      0.835710000000     0.662160000000     0.023660000000     0.0361221  
H660     H      0.795850000000     0.651050000000     0.807560000000     0.0329428  
H661     H      0.829440000000     0.674790000000     0.368450000000     0.0443934  
H662     H      0.822400000000     0.634040000000     0.498900000000     0.0327077  
H663     H      0.849940000000     0.713090000000     0.493960000000     0.0329826  
H664     H      0.899500000000     0.711120000000     0.289570000000     0.036864   
H665     H      0.796840000000     0.642600000000     0.540720000000     0.0325058  
H666     H      0.849450000000     0.634780000000     0.350900000000     0.0328762  
H667     H      0.901670000000     0.713520000000     0.351440000000     0.0331806  
H668     H      0.872840000000     0.632980000000     0.292040000000     0.031266   
H669     H      0.844470000000     0.714340000000     0.560870000000     0.036562   
H670     H      0.812960000000     0.673410000000     0.429820000000     0.0432418  
H671     H      0.817090000000     0.634500000000     0.566090000000     0.0371842  
H672     H      0.895880000000     0.676120000000     0.413980000000     0.0385927  
H673     H      0.851560000000     0.655350000000     0.522430000000     0.0361679  
H674     H      0.923280000000     0.702360000000     0.295650000000     0.0324136  
H675     H      0.814960000000     0.695420000000     0.537000000000     0.0336076  
H676     H      0.883360000000     0.647080000000     0.352850000000     0.0338507  
H677     H      0.912280000000     0.690850000000     0.355830000000     0.0320832  
H678     H      0.880110000000     0.676050000000     0.475050000000     0.0390561  
H679     H      0.867680000000     0.701660000000     0.519410000000     0.0367813  
H680     H      0.848730000000     0.641670000000     0.289480000000     0.0389218  
H681     H      0.658160000000     0.611940000000     0.636660000000     0.0429129  
H682     H      0.644510000000     0.569240000000     0.509950000000     0.0327957  
H683     H      0.627050000000     0.628660000000     0.515420000000     0.0332829  
H684     H      0.722550000000     0.621310000000     0.693390000000     0.0325718  
H685     H      0.625570000000     0.572140000000     0.452870000000     0.0325096  
H686     H      0.718770000000     0.675430000000     0.631180000000     0.0333572  
H687     H      0.704710000000     0.599840000000     0.635910000000     0.0328181  
H688     H      0.759770000000     0.690790000000     0.665410000000     0.0373328  
H689     H      0.586240000000     0.602230000000     0.481410000000     0.0371019  
H690     H      0.627360000000     0.595610000000     0.586720000000     0.0400684  
H691     H      0.604840000000     0.542500000000     0.474850000000     0.0372406  
H692     H      0.720090000000     0.643340000000     0.559700000000     0.0400235  
H693     H      0.616330000000     0.563250000000     0.534920000000     0.0381285  
H694     H      0.744390000000     0.613650000000     0.671510000000     0.0373072  
H695     H      0.614170000000     0.608060000000     0.456400000000     0.032438   
H696     H      0.741120000000     0.668670000000     0.608410000000     0.0374074  
H697     H      0.732610000000     0.622810000000     0.611440000000     0.03819    
H698     H      0.689260000000     0.628200000000     0.509750000000     0.0428343  
H699     H      0.605670000000     0.599430000000     0.538320000000     0.0375652  
H700     H      0.732110000000     0.668260000000     0.690280000000     0.0327867  
H701     H      0.965790000000     0.723860000000     0.754060000000     0.0392623  
H702     H      0.059490000000     0.734180000000     0.739790000000     0.0331246  
H703     H      0.052250000000     0.799820000000     0.741140000000     0.0328095  
H704     H      0.914730000000     0.680110000000     0.642520000000     0.033334   
H705     H      0.088020000000     0.758940000000     0.787070000000     0.0348116  
H706     H      0.958030000000     0.755710000000     0.679870000000     0.0327626  
H707     H      0.943460000000     0.680190000000     0.688460000000     0.0330602  
H708     H      0.911630000000     0.740270000000     0.672120000000     0.0371632  
H709     H      0.099700000000     0.826730000000     0.751330000000     0.0359466  
H710     H      0.008910000000     0.743780000000     0.779880000000     0.0430048  
H711     H      0.107490000000     0.762040000000     0.748730000000     0.0359693  
H712     H      0.997640000000     0.736410000000     0.646490000000     0.042588   
H713     H      0.075640000000     0.758660000000     0.706350000000     0.0349142  
H714     H      0.896400000000     0.663760000000     0.681840000000     0.0369053  
H715     H      0.081940000000     0.807120000000     0.788760000000     0.0348163  
H716     H      0.939050000000     0.736380000000     0.717240000000     0.0367606  
H717     H      0.930570000000     0.691970000000     0.722420000000     0.0361888  
H718     H      0.040850000000     0.756790000000     0.672390000000     0.0391464  
H719     H      0.071720000000     0.796180000000     0.707390000000     0.0354062  
H720     H      0.924940000000     0.730500000000     0.636380000000     0.0330318  
N1       N      0.832210000000     0.128150000000     0.670570000000    -0.181742   
N2       N      0.797890000000     0.078350000000     0.693940000000    -0.113881   
N3       N      0.747520000000     0.990160000000     0.782460000000    -0.113661   
N4       N      0.725680000000     0.940080000000     0.808720000000    -0.18165    
N5       N      0.934100000000     0.271670000000     0.654090000000    -0.182142   
N6       N      0.965870000000     0.319820000000     0.623340000000    -0.113942   
N7       N      0.003640000000     0.400230000000     0.520590000000    -0.113556   
N8       N      0.018530000000     0.446610000000     0.485210000000    -0.181731   
N9       N      0.058980000000     0.578470000000     0.399200000000    -0.181592   
N10      N      0.074480000000     0.628200000000     0.376590000000    -0.113295   
N11      N      0.115350000000     0.722790000000     0.303290000000    -0.11385    
N12      N      0.145680000000     0.775150000000     0.289140000000    -0.181991   
N13      N      0.564740000000     0.590190000000     0.930980000000    -0.181797   
N14      N      0.592450000000     0.639770000000     0.902460000000    -0.113756   
N15      N      0.644730000000     0.747090000000     0.885880000000    -0.113479   
N16      N      0.666400000000     0.797470000000     0.861180000000    -0.181392   
N17      N      0.235570000000     0.921640000000     0.298040000000    -0.181279   
N18      N      0.266210000000     0.972790000000     0.279640000000    -0.112941   
N19      N      0.321750000000     0.079950000000     0.263160000000    -0.113631   
N20      N      0.342540000000     0.129630000000     0.235600000000    -0.181615   
N21      N      0.397330000000     0.265430000000     0.154650000000    -0.181183   
N22      N      0.416500000000     0.311870000000     0.117580000000    -0.113278   
N23      N      0.465500000000     0.414950000000     0.071910000000    -0.113412   
N24      N      0.491080000000     0.460860000000     0.032850000000    -0.181242   
N25      N      0.703380000000     0.814490000000     0.433910000000    -0.181845   
N26      N      0.703040000000     0.816220000000     0.510250000000    -0.113922   
N27      N      0.699230000000     0.846870000000     0.655050000000    -0.113329   
N28      N      0.697110000000     0.853780000000     0.730150000000    -0.181252   
N29      N      0.692590000000     0.850360000000     0.234220000000    -0.181297   
N30      N      0.692110000000     0.856890000000     0.158990000000    -0.113097   
N31      N      0.693950000000     0.884720000000     0.011150000000    -0.113736   
N32      N      0.696040000000     0.885390000000     0.934810000000    -0.181982   
N33      N      0.726920000000     0.793840000000     0.294200000000    -0.181279   
N34      N      0.748220000000     0.767150000000     0.260210000000    -0.113369   
N35      N      0.804990000000     0.718450000000     0.224990000000    -0.112981   
N36      N      0.836350000000     0.701000000000     0.195680000000    -0.18114    
N37      N      0.559910000000     0.976830000000     0.402900000000    -0.18183    
N38      N      0.590330000000     0.955410000000     0.383670000000    -0.113828   
N39      N      0.645440000000     0.902080000000     0.390020000000    -0.113792   
N40      N      0.668110000000     0.872600000000     0.372340000000    -0.1817     
N41      N      0.042690000000     0.542700000000     0.535910000000    -0.182445   
N42      N      0.043620000000     0.550730000000     0.611110000000    -0.113981   
N43      N      0.042400000000     0.535380000000     0.763490000000    -0.113304   
N44      N      0.039530000000     0.534470000000     0.839360000000    -0.181917   
N45      N      0.035960000000     0.519730000000     0.049410000000    -0.18228    
N46      N      0.034690000000     0.513470000000     0.125020000000    -0.113712   
N47      N      0.034740000000     0.482130000000     0.270410000000    -0.114152   
N48      N      0.034970000000     0.482640000000     0.346570000000    -0.182717   
N49      N      0.929440000000     0.649270000000     0.160310000000    -0.181908   
N50      N      0.957740000000     0.632700000000     0.119420000000    -0.114037   
N51      N      0.993390000000     0.600670000000     0.998720000000    -0.114077   
N52      N      0.011150000000     0.573510000000     0.957810000000    -0.182142   
N53      N      0.369940000000     0.146960000000     0.794540000000    -0.18161    
N54      N      0.368770000000     0.145170000000     0.871030000000    -0.113828   
N55      N      0.366640000000     0.169740000000     0.019660000000    -0.11302    
N56      N      0.366220000000     0.175630000000     0.095150000000    -0.180852   
N57      N      0.365740000000     0.187260000000     0.594710000000    -0.181022   
N58      N      0.364580000000     0.202740000000     0.522970000000    -0.11338    
N59      N      0.373870000000     0.223930000000     0.371240000000    -0.113826   
N60      N      0.374620000000     0.221350000000     0.294920000000    -0.181399   
N61      N      0.480230000000     0.030460000000     0.494600000000    -0.181514   
N62      N      0.452230000000     0.050180000000     0.529210000000    -0.113578   
N63      N      0.412750000000     0.093040000000     0.629740000000    -0.113693   
N64      N      0.394100000000     0.122670000000     0.662030000000    -0.18158    
N65      N      0.064280000000     0.481350000000     0.928580000000    -0.181168   
N66      N      0.083490000000     0.449880000000     0.906370000000    -0.113229   
N67      N      0.133970000000     0.392740000000     0.889370000000    -0.113748   
N68      N      0.162550000000     0.371800000000     0.859960000000    -0.181819   
N69      N      0.239640000000     0.319680000000     0.757030000000    -0.181567   
N70      N      0.269670000000     0.297850000000     0.737850000000    -0.113787   
N71      N      0.321520000000     0.241450000000     0.745800000000    -0.113696   
N72      N      0.341780000000     0.209740000000     0.729130000000    -0.181767   
N73      N      0.526350000000     0.518840000000     0.584390000000    -0.181574   
N74      N      0.527940000000     0.515610000000     0.660550000000    -0.1136     
N75      N      0.507730000000     0.489210000000     0.810180000000    -0.113955   
N76      N      0.508310000000     0.492660000000     0.886430000000    -0.181789   
N77      N      0.515010000000     0.521000000000     0.373730000000    -0.181526   
N78      N      0.514340000000     0.524190000000     0.297490000000    -0.113598   
N79      N      0.536190000000     0.546060000000     0.147230000000    -0.111395   
N80      N      0.546440000000     0.557250000000     0.076450000000    -0.180208   
N81      N      0.874640000000     0.184970000000     0.070460000000    -0.180986   
N82      N      0.879090000000     0.188300000000     0.994970000000    -0.112846   
N83      N      0.897120000000     0.207060000000     0.843610000000    -0.113596   
N84      N      0.893020000000     0.205770000000     0.767350000000    -0.181598   
N85      N      0.819410000000     0.147200000000     0.265970000000    -0.18214    
N86      N      0.823490000000     0.151920000000     0.341950000000    -0.114067   
N87      N      0.864780000000     0.188970000000     0.482380000000    -0.113676   
N88      N      0.874970000000     0.196300000000     0.557360000000    -0.181664   
N89      N      0.191920000000     0.347140000000     0.412590000000    -0.181223   
N90      N      0.195140000000     0.352160000000     0.488480000000    -0.113257   
N91      N      0.183820000000     0.354170000000     0.641590000000    -0.111495   
N92      N      0.177590000000     0.355920000000     0.713880000000    -0.180349   
N93      N      0.199930000000     0.338550000000     0.202420000000    -0.181394   
N94      N      0.201680000000     0.335080000000     0.126500000000    -0.113378   
N95      N      0.225570000000     0.332830000000     0.977490000000    -0.113992   
N96      N      0.224480000000     0.335380000000     0.901330000000    -0.182196   
N97      N      0.122090000000     0.312490000000     0.293340000000    -0.181243   
N98      N      0.071320000000     0.290590000000     0.269160000000    -0.113137   
N99      N      0.963780000000     0.236470000000     0.245890000000    -0.113628   
N100     N      0.914670000000     0.207150000000     0.215220000000    -0.1818     
N101     N      0.447890000000     0.469040000000     0.482720000000    -0.182073   
N102     N      0.399200000000     0.437030000000     0.452830000000    -0.114026   
N103     N      0.318450000000     0.393700000000     0.349250000000    -0.113893   
N104     N      0.269500000000     0.372710000000     0.317720000000    -0.181871   
N105     N      0.545880000000     0.997540000000     0.544420000000    -0.181973   
N106     N      0.552130000000     0.996680000000     0.620050000000    -0.113878   
N107     N      0.537670000000     0.999740000000     0.772260000000    -0.112943   
N108     N      0.536880000000     0.002710000000     0.847940000000    -0.181258   
N109     N      0.494770000000     0.009530000000     0.355400000000    -0.182003   
N110     N      0.488570000000     0.009990000000     0.279740000000    -0.113938   
N111     N      0.502700000000     0.005380000000     0.127780000000    -0.113005   
N112     N      0.503510000000     0.002270000000     0.052140000000    -0.181236   
N113     N      0.782210000000     0.126720000000     0.121140000000    -0.1814     
N114     N      0.737460000000     0.099930000000     0.079340000000    -0.113297   
N115     N      0.636080000000     0.049640000000     0.023550000000    -0.113096   
N116     N      0.590210000000     0.030410000000     0.984450000000    -0.181166   
N117     N      0.190700000000     0.841870000000     0.401850000000    -0.18175    
N118     N      0.192010000000     0.839000000000     0.477920000000    -0.113547   
N119     N      0.210640000000     0.856850000000     0.629530000000    -0.113929   
N120     N      0.203920000000     0.854160000000     0.705270000000    -0.182331   
N121     N      0.144660000000     0.816150000000     0.898580000000    -0.180675   
N122     N      0.158420000000     0.827210000000     0.967950000000    -0.111295   
N123     N      0.185820000000     0.853680000000     0.115630000000    -0.113699   
N124     N      0.190450000000     0.854800000000     0.191590000000    -0.182055   
N125     N      0.449600000000     0.974380000000     0.917620000000    -0.181536   
N126     N      0.399110000000     0.953740000000     0.891910000000    -0.113467   
N127     N      0.291020000000     0.902220000000     0.874800000000    -0.113587   
N128     N      0.240980000000     0.873810000000     0.846870000000    -0.1815     
N129     N      0.877770000000     0.678770000000     0.071090000000    -0.181969   
N130     N      0.871570000000     0.681270000000     0.995780000000    -0.113753   
N131     N      0.834520000000     0.682100000000     0.854240000000    -0.113784   
N132     N      0.827140000000     0.679590000000     0.778600000000    -0.181992   
N133     N      0.827040000000     0.673860000000     0.567450000000    -0.18215    
N134     N      0.834470000000     0.673160000000     0.492280000000    -0.113827   
N135     N      0.871920000000     0.675070000000     0.350110000000    -0.111567   
N136     N      0.886530000000     0.672030000000     0.281230000000    -0.18043    
N137     N      0.592850000000     0.570580000000     0.476250000000    -0.182433   
N138     N      0.638690000000     0.600910000000     0.514090000000    -0.114141   
N139     N      0.708770000000     0.636580000000     0.632330000000    -0.114092   
N140     N      0.754690000000     0.653180000000     0.670770000000    -0.182266   
N141     N      0.105010000000     0.795010000000     0.762250000000    -0.181482   
N142     N      0.052980000000     0.765300000000     0.744540000000    -0.113244   
N143     N      0.953680000000     0.718820000000     0.681810000000    -0.113793   
N144     N      0.900990000000     0.700710000000     0.671730000000    -0.181979   
O1       O      0.823460000000     0.658350000000     0.725670000000    -0.559846   
O2       O      0.823440000000     0.655540000000     0.623070000000    -0.559806   
O3       O      0.859240000000     0.668510000000     0.674710000000    -0.557807   
O4       O      0.788150000000     0.645540000000     0.673880000000    -0.560723   
O5       O      0.796430000000     0.685520000000     0.671450000000    -0.557197   
O6       O      0.867540000000     0.708480000000     0.671650000000    -0.559345   
O7       O      0.831880000000     0.695570000000     0.620340000000    -0.558572   
O8       O      0.832390000000     0.698540000000     0.723060000000    -0.557743   
O9       O      0.185720000000     0.861040000000     0.755290000000    -0.55985    
O10      O      0.156990000000     0.842620000000     0.849360000000    -0.558541   
O11      O      0.204520000000     0.871120000000     0.823120000000    -0.557532   
O12      O      0.138440000000     0.832720000000     0.781930000000    -0.560096   
O13      O      0.143210000000     0.798700000000     0.780110000000    -0.556886   
O14      O      0.209040000000     0.836950000000     0.822290000000    -0.558996   
O15      O      0.161700000000     0.808560000000     0.847870000000    -0.559707   
O16      O      0.191070000000     0.827380000000     0.754240000000    -0.559427   
O17      O      0.507510000000     0.982200000000     0.002050000000    -0.557287   
O18      O      0.526390000000     0.983470000000     0.903700000000    -0.558148   
O19      O      0.551660000000     0.996490000000     0.967520000000    -0.5566     
O20      O      0.482600000000     0.969300000000     0.938290000000    -0.559461   
O21      O      0.488610000000     0.008370000000     0.932740000000    -0.557158   
O22      O      0.557700000000     0.035580000000     0.961870000000    -0.558853   
O23      O      0.532770000000     0.022680000000     0.898050000000    -0.557912   
O24      O      0.513950000000     0.021440000000     0.996370000000    -0.558728   
O25      O      0.190420000000     0.325160000000     0.361260000000    -0.557376   
O26      O      0.195820000000     0.321580000000     0.259240000000    -0.557853   
O27      O      0.229180000000     0.337960000000     0.314800000000    -0.557996   
O28      O      0.157390000000     0.308880000000     0.305380000000    -0.559475   
O29      O      0.162070000000     0.347440000000     0.299710000000    -0.555745   
O30      O      0.233910000000     0.376540000000     0.309540000000    -0.558679   
O31      O      0.201070000000     0.360370000000     0.253720000000    -0.557158   
O32      O      0.195300000000     0.363810000000     0.355690000000    -0.557271   
O33      O      0.859520000000     0.193080000000     0.122760000000    -0.558725   
O34      O      0.830280000000     0.173300000000     0.216370000000    -0.55859    
O35      O      0.877800000000     0.203250000000     0.191070000000    -0.558049   
O36      O      0.812540000000     0.163460000000     0.148000000000    -0.559491   
O37      O      0.818550000000     0.130190000000     0.146700000000    -0.556042   
O38      O      0.883950000000     0.170080000000     0.189480000000    -0.558371   
O39      O      0.836890000000     0.140410000000     0.215010000000    -0.557879   
O40      O      0.865850000000     0.159990000000     0.121090000000    -0.555632   
O41      O      0.517560000000     0.534100000000     0.532670000000    -0.556502   
O42      O      0.513100000000     0.535920000000     0.430130000000    -0.556806   
O43      O      0.480270000000     0.510390000000     0.483580000000    -0.55924    
O44      O      0.550650000000     0.559860000000     0.479220000000    -0.558135   
O45      O      0.560500000000     0.529240000000     0.474500000000    -0.559595   
O46      O      0.490100000000     0.479730000000     0.479200000000    -0.557405   
O47      O      0.523070000000     0.505370000000     0.425610000000    -0.558058   
O48      O      0.527910000000     0.503820000000     0.528000000000    -0.558205   
O49      O      0.195870000000     0.320950000000     0.854160000000    -0.557887   
O50      O      0.172380000000     0.331420000000     0.763920000000    -0.558517   
O51      O      0.202910000000     0.313620000000     0.784400000000    -0.558335   
O52      O      0.165120000000     0.338940000000     0.833720000000    -0.556542   
O53      O      0.198800000000     0.377950000000     0.831020000000    -0.559522   
O54      O      0.236700000000     0.352590000000     0.782320000000    -0.557282   
O55      O      0.206030000000     0.370470000000     0.761220000000    -0.556478   
O56      O      0.229210000000     0.360190000000     0.851910000000    -0.558617   
O57      O      0.389030000000     0.172780000000     0.745480000000    -0.55728    
O58      O      0.386960000000     0.192290000000     0.648400000000    -0.557707   
O59      O      0.375250000000     0.203840000000     0.713230000000    -0.556222   
O60      O      0.400570000000     0.161360000000     0.680710000000    -0.558504   
O61      O      0.360680000000     0.129200000000     0.675530000000    -0.557114   
O62      O      0.335380000000     0.171630000000     0.707960000000    -0.559198   
O63      O      0.346970000000     0.160310000000     0.642980000000    -0.554946   
O64      O      0.348960000000     0.140920000000     0.740350000000    -0.555986   
O65      O      0.057120000000     0.539240000000     0.997090000000    -0.559999   
O66      O      0.058170000000     0.547630000000     0.895220000000    -0.56005    
O67      O      0.044740000000     0.566090000000     0.952140000000    -0.558607   
O68      O      0.070430000000     0.521020000000     0.940000000000    -0.559718   
O69      O      0.030600000000     0.488420000000     0.936830000000    -0.556509   
O70      O      0.004920000000     0.533600000000     0.948390000000    -0.559364   
O71      O      0.018270000000     0.515170000000     0.891700000000    -0.559568   
O72      O      0.017110000000     0.507040000000     0.993610000000    -0.560581   
O73      O      0.714130000000     0.858900000000     0.288230000000    -0.558933   
O74      O      0.720140000000     0.840510000000     0.384450000000    -0.558199   
O75      O      0.731310000000     0.830500000000     0.318250000000    -0.559496   
O76      O      0.702730000000     0.869270000000     0.354270000000    -0.557724   
O77      O      0.663750000000     0.835400000000     0.350460000000    -0.557852   
O78      O      0.692370000000     0.796540000000     0.314600000000    -0.555009   
O79      O      0.680940000000     0.806930000000     0.380810000000    -0.557148   
O80      O      0.675010000000     0.825190000000     0.284350000000    -0.555707   
O81      O      0.869080000000     0.653440000000     0.226690000000    -0.559536   
O82      O      0.863610000000     0.657410000000     0.124900000000    -0.560583   
O83      O      0.889050000000     0.642910000000     0.168900000000    -0.560028   
O84      O      0.843450000000     0.668070000000     0.182950000000    -0.556515   
O85      O      0.876480000000     0.707550000000     0.183890000000    -0.558217   
O86      O      0.922010000000     0.682400000000     0.169080000000    -0.557252   
O87      O      0.896180000000     0.697120000000     0.125440000000    -0.557551   
O88      O      0.902010000000     0.693000000000     0.227330000000    -0.557183   
O89      O      0.516430000000     0.980890000000     0.498430000000    -0.557903   
O90      O      0.491500000000     0.986810000000     0.406660000000    -0.558751   
O91      O      0.523140000000     0.971000000000     0.429830000000    -0.558988   
O92      O      0.484510000000     0.996900000000     0.475170000000    -0.55669    
O93      O      0.517450000000     0.036140000000     0.469470000000    -0.558891   
O94      O      0.556260000000     0.010200000000     0.424820000000    -0.556609   
O95      O      0.524380000000     0.026130000000     0.401200000000    -0.557686   
O96      O      0.549070000000     0.020360000000     0.493270000000    -0.558402   
O97      O      0.387440000000     0.188830000000     0.149400000000    -0.557267   
O98      O      0.392260000000     0.212800000000     0.245620000000    -0.556839   
O99      O      0.376390000000     0.167170000000     0.215650000000    -0.556255   
O100     O      0.403110000000     0.234030000000     0.179300000000    -0.55756    
O101     O      0.363600000000     0.227970000000     0.174980000000    -0.556749   
O102     O      0.336940000000     0.161290000000     0.211700000000    -0.55914    
O103     O      0.352700000000     0.206580000000     0.241400000000    -0.556822   
O104     O      0.347770000000     0.182360000000     0.145200000000    -0.555296   
O105     O      0.500550000000     0.510740000000     0.935700000000    -0.558584   
O106     O      0.519810000000     0.543450000000     0.027100000000    -0.557301   
O107     O      0.528300000000     0.558760000000     0.957600000000    -0.558184   
O108     O      0.491970000000     0.495150000000     0.005240000000    -0.555883   
O109     O      0.527110000000     0.491830000000     0.004930000000    -0.558788   
O110     O      0.563400000000     0.555380000000     0.957380000000    -0.557436   
O111     O      0.554760000000     0.539780000000     0.026870000000    -0.557306   
O112     O      0.535470000000     0.507040000000     0.935360000000    -0.556696   
O113     O      0.173290000000     0.853610000000     0.247430000000    -0.559716   
O114     O      0.174260000000     0.848660000000     0.349740000000    -0.559617   
O115     O      0.195610000000     0.886540000000     0.301260000000    -0.55919    
O116     O      0.151740000000     0.815340000000     0.295470000000    -0.557385   
O117     O      0.185700000000     0.810180000000     0.291300000000    -0.559946   
O118     O      0.229570000000     0.881300000000     0.297940000000    -0.55727    
O119     O      0.207830000000     0.842820000000     0.345980000000    -0.558382   
O120     O      0.207180000000     0.848280000000     0.243620000000    -0.558771   
O121     O      0.061080000000     0.532140000000     0.489810000000    -0.559793   
O122     O      0.057490000000     0.503520000000     0.397320000000    -0.560433   
O123     O      0.068950000000     0.549390000000     0.421850000000    -0.559728   
O124     O      0.049510000000     0.485870000000     0.465480000000    -0.55766    
O125     O      0.008540000000     0.475340000000     0.461270000000    -0.559764   
O126     O      0.027960000000     0.538810000000     0.417450000000    -0.557319   
O127     O      0.016390000000     0.492510000000     0.393170000000    -0.560105   
O128     O      0.020010000000     0.521270000000     0.485550000000    -0.560224   
O129     O      0.863810000000     0.203060000000     0.613950000000    -0.558558   
O130     O      0.872330000000     0.207290000000     0.716040000000    -0.558613   
O131     O      0.892680000000     0.239750000000     0.660940000000    -0.560825   
O132     O      0.843080000000     0.170080000000     0.669100000000    -0.557905   
O133     O      0.873770000000     0.160040000000     0.664220000000    -0.558508   
O134     O      0.923390000000     0.229780000000     0.655750000000    -0.556405   
O135     O      0.902800000000     0.196940000000     0.711090000000    -0.556709   
O136     O      0.894180000000     0.192590000000     0.608910000000    -0.556907   
O137     O      0.715790000000     0.863310000000     0.786400000000    -0.558781   
O138     O      0.715610000000     0.879480000000     0.885570000000    -0.558909   
O139     O      0.701230000000     0.836390000000     0.848520000000    -0.557083   
O140     O      0.729900000000     0.905820000000     0.823780000000    -0.559874   
O141     O      0.690790000000     0.900490000000     0.817520000000    -0.556057   
O142     O      0.662100000000     0.831020000000     0.842180000000    -0.558438   
O143     O      0.676250000000     0.873560000000     0.879430000000    -0.556727   
O144     O      0.676510000000     0.857560000000     0.780020000000    -0.55587    
V1       V      0.823290000000     0.655420000000     0.674480000000     1.39488    
V2       V      0.832380000000     0.698620000000     0.671570000000     1.38954    
V3       V      0.171270000000     0.853250000000     0.802430000000     1.39403    
V4       V      0.176440000000     0.816540000000     0.800960000000     1.39195    
V5       V      0.516820000000     0.981320000000     0.953120000000     1.39029    
V6       V      0.523480000000     0.023560000000     0.946970000000     1.39175    
V7       V      0.193030000000     0.321880000000     0.310460000000     1.39176    
V8       V      0.198240000000     0.363560000000     0.304480000000     1.38788    
V9       V      0.844830000000     0.184610000000     0.169690000000     1.39329    
V10      V      0.851560000000     0.148850000000     0.168010000000     1.38682    
V11      V      0.515020000000     0.536300000000     0.481570000000     1.38816    
V12      V      0.525750000000     0.503300000000     0.476640000000     1.39113    
V13      V      0.182720000000     0.324690000000     0.809190000000     1.38899    
V14      V      0.219020000000     0.366850000000     0.806460000000     1.39102    
V15      V      0.389530000000     0.183850000000     0.697160000000     1.38911    
V16      V      0.346420000000     0.149210000000     0.691410000000     1.38656    
V17      V      0.059190000000     0.544810000000     0.946290000000     1.39464    
V18      V      0.016150000000     0.509750000000     0.942510000000     1.39265    
V19      V      0.718600000000     0.851160000000     0.336540000000     1.3934     
V20      V      0.676470000000     0.814650000000     0.332410000000     1.38476    
V21      V      0.864980000000     0.653900000000     0.175790000000     1.39494    
V22      V      0.900520000000     0.696580000000     0.176390000000     1.38788    
V23      V      0.502580000000     0.982350000000     0.452810000000     1.39021    
V24      V      0.538120000000     0.024750000000     0.446950000000     1.38976    
V25      V      0.391350000000     0.200910000000     0.197710000000     1.38773    
V26      V      0.348690000000     0.194320000000     0.193130000000     1.38814    
V27      V      0.508750000000     0.527150000000     0.981440000000     1.38971    
V28      V      0.546590000000     0.523380000000     0.981060000000     1.38932    
V29      V      0.172360000000     0.851210000000     0.298710000000     1.39309    
V30      V      0.208940000000     0.845460000000     0.294640000000     1.39171    
V31      V      0.060880000000     0.518120000000     0.443810000000     1.3936     
V32      V      0.016600000000     0.506570000000     0.439140000000     1.39348    
V33      V      0.866720000000     0.205380000000     0.665220000000     1.39419    
V34      V      0.899770000000     0.194440000000     0.659790000000     1.38594    
V35      V      0.717150000000     0.871390000000     0.836310000000     1.3934     
V36      V      0.674850000000     0.865440000000     0.829460000000     1.38559    


