data_structure

_audit_creation_method RASPA-1.0
_audit_creation_date 2023-5-23
_audit_author_name 'Poobodin Mano'

_cell_length_a    43.7291
_cell_length_b    43.6889
_cell_length_c    44.5992
_cell_angle_alpha 90
_cell_angle_beta  90
_cell_angle_gamma 90
_cell_volume      85205.7

_symmetry_cell_setting          triclinic
_symmetry_space_group_name_Hall 'P 1'
_symmetry_space_group_name_H-M  'P 1'
_symmetry_Int_Tables_number     1

_symmetry_equiv_pos_as_xyz 'x,y,z'

loop_
_atom_site_label
_atom_site_type_symbol
_atom_site_fract_x
_atom_site_fract_y
_atom_site_fract_z
_atom_site_charge
C1       C      0.750000000000     0.351370000000     0.017510000000     0.486422   
C2       C      0.637120000000     0.333550000000     0.000030000000     0.485195   
C3       C      0.686220000000     0.398680000000     0.998730000000     0.487681   
C4       C      0.701080000000     0.285790000000     0.019060000000     0.485992   
C5       C      0.308300000000     0.340840000000     0.998970000000     0.487124   
C6       C      0.422160000000     0.359330000000     0.990200000000     0.48719    
C7       C      0.356820000000     0.406500000000     0.005660000000     0.486191   
C8       C      0.373370000000     0.294160000000     0.983600000000     0.486953   
C9       C      0.627170000000     0.727810000000     0.015250000000     0.485918   
C10      C      0.647600000000     0.615050000000     0.999120000000     0.487619   
C11      C      0.581930000000     0.659790000000     0.018780000000     0.486332   
C12      C      0.692810000000     0.683150000000     0.996160000000     0.487929   
C13      C      0.256950000000     0.680020000000     0.000200000000     0.485833   
C14      C      0.369830000000     0.680110000000     0.024630000000     0.486978   
C15      C      0.313180000000     0.622250000000     0.015230000000     0.485679   
C16      C      0.313700000000     0.737920000000     0.009780000000     0.485454   
C17      C      0.738900000000     0.031310000000     0.703520000000     0.485438   
C18      C      0.624680000000     0.039220000000     0.686880000000     0.485781   
C19      C      0.690350000000     0.036030000000     0.639160000000     0.487203   
C20      C      0.673100000000     0.034440000000     0.751270000000     0.486248   
C21      C      0.292000000000     0.014770000000     0.630980000000     0.486274   
C22      C      0.403250000000     0.029440000000     0.658770000000     0.485507   
C23      C      0.361470000000     0.026010000000     0.589970000000     0.485839   
C24      C      0.334000000000     0.017590000000     0.699900000000     0.485971   
C25      C      0.376090000000     0.034640000000     0.253960000000     0.485723   
C26      C      0.376410000000     0.031890000000     0.367400000000     0.485527   
C27      C      0.433080000000     0.044450000000     0.311030000000     0.486214   
C28      C      0.319550000000     0.022180000000     0.310790000000     0.486354   
C29      C      0.760770000000     0.025920000000     0.363050000000     0.485826   
C30      C      0.647070000000     0.046120000000     0.355590000000     0.486234   
C31      C      0.702080000000     0.046560000000     0.415130000000     0.486814   
C32      C      0.705610000000     0.025180000000     0.303770000000     0.487223   
C33      C      0.988110000000     0.673490000000     0.691550000000     0.486719   
C34      C      0.000960000000     0.658060000000     0.579820000000     0.485162   
C35      C      0.985310000000     0.608860000000     0.642260000000     0.486466   
C36      C      0.003810000000     0.722450000000     0.629420000000     0.485985   
C37      C      0.010330000000     0.280330000000     0.699420000000     0.485866   
C38      C      0.989340000000     0.393000000000     0.682890000000     0.485772   
C39      C      0.998970000000     0.328130000000     0.635180000000     0.487406   
C40      C      0.001110000000     0.345570000000     0.747280000000     0.485449   
C41      C      0.992010000000     0.661400000000     0.248080000000     0.485921   
C42      C      0.002080000000     0.655180000000     0.360990000000     0.485084   
C43      C      0.985940000000     0.601470000000     0.302700000000     0.486475   
C44      C      0.007860000000     0.715080000000     0.306770000000     0.486114   
C45      C      0.005710000000     0.332810000000     0.300090000000     0.485989   
C46      C      0.985640000000     0.333500000000     0.411790000000     0.48683    
C47      C      0.984360000000     0.389840000000     0.353320000000     0.486491   
C48      C      0.006750000000     0.276350000000     0.358230000000     0.486107   
C49      C      0.970350000000     0.349400000000     0.031790000000     0.486809   
C50      C      0.084800000000     0.339880000000     0.018340000000     0.48611    
C51      C      0.033950000000     0.341740000000     0.081130000000     0.486172   
C52      C      0.020810000000     0.347390000000     0.968590000000     0.486538   
C53      C      0.919600000000     0.679100000000     0.971000000000     0.486896   
C54      C      0.034930000000     0.677320000000     0.963260000000     0.487017   
C55      C      0.981210000000     0.676380000000     0.023870000000     0.485383   
C56      C      0.973250000000     0.679830000000     0.910720000000     0.486082   
C57      C      0.097270000000     0.992730000000     0.331610000000     0.485997   
C58      C      0.982630000000     0.997280000000     0.346250000000     0.486418   
C59      C      0.037000000000     0.937930000000     0.330900000000     0.486036   
C60      C      0.043610000000     0.052360000000     0.346930000000     0.486152   
C61      C      0.961440000000     0.012820000000     0.675460000000     0.485499   
C62      C      0.073490000000     0.997010000000     0.651640000000     0.48559    
C63      C      0.027510000000     0.061420000000     0.672710000000     0.48559    
C64      C      0.007680000000     0.948890000000     0.654140000000     0.485695   
C65      C      0.674360000000     0.997060000000     0.087450000000     0.487088   
C66      C      0.667300000000     0.014620000000     0.975590000000     0.486657   
C67      C      0.658620000000     0.949850000000     0.023950000000     0.486291   
C68      C      0.682600000000     0.062000000000     0.039430000000     0.486664   
C69      C      0.337920000000     0.005420000000     0.921560000000     0.48596    
C70      C      0.353640000000     0.026500000000     0.032070000000     0.485252   
C71      C      0.336810000000     0.959980000000     0.988560000000     0.485985   
C72      C      0.354650000000     0.071800000000     0.964910000000     0.486626   
C73      C      0.028860000000     0.157720000000     0.319870000000    -0.0441223  
C74      C      0.050070000000     0.104360000000     0.326160000000    -0.013607   
C75      C      0.044380000000     0.199780000000     0.352260000000     0.01115    
C76      C      0.047700000000     0.137430000000     0.335850000000     0.0119805  
C77      C      0.043580000000     0.233360000000     0.360430000000    -0.0130694  
C78      C      0.065710000000     0.148860000000     0.359440000000    -0.0415931  
C79      C      0.063840000000     0.179670000000     0.367740000000    -0.0446814  
C80      C      0.027580000000     0.188660000000     0.327680000000    -0.0409597  
C81      C      0.020420000000     0.373630000000     0.181690000000    -0.0438677  
C82      C      0.043020000000     0.367070000000     0.129860000000    -0.0128851  
C83      C      0.040540000000     0.345720000000     0.224560000000     0.0111486  
C84      C      0.041810000000     0.359380000000     0.162800000000     0.0112655  
C85      C      0.041410000000     0.340070000000     0.257920000000    -0.0132213  
C86      C      0.062720000000     0.338450000000     0.175080000000    -0.0423175  
C87      C      0.062020000000     0.331590000000     0.205670000000    -0.0445162  
C88      C      0.019990000000     0.367080000000     0.212370000000    -0.0417109  
C89      C      0.948280000000     0.489330000000     0.355660000000    -0.0439686  
C90      C      0.947750000000     0.432340000000     0.346050000000    -0.0134052  
C91      C      0.949490000000     0.525860000000     0.314560000000     0.0114989  
C92      C      0.949200000000     0.464950000000     0.335170000000     0.0116052  
C93      C      0.949120000000     0.558470000000     0.303620000000    -0.0130604  
C94      C      0.951150000000     0.471250000000     0.304360000000    -0.0423627  
C95      C      0.951370000000     0.501500000000     0.294130000000    -0.0438875  
C96      C      0.948530000000     0.519580000000     0.345420000000    -0.0420883  
C97      C      0.060620000000     0.813590000000     0.304720000000    -0.0445422  
C98      C      0.044410000000     0.758230000000     0.310140000000    -0.0129131  
C99      C      0.042950000000     0.852730000000     0.339470000000     0.0110275  
C100     C      0.043980000000     0.791200000000     0.320340000000     0.0109743  
C101     C      0.043150000000     0.885450000000     0.350390000000    -0.0128947  
C102     C      0.027580000000     0.799690000000     0.346130000000    -0.0415726  
C103     C      0.026870000000     0.830200000000     0.355460000000    -0.044353   
C104     C      0.060390000000     0.844030000000     0.314400000000    -0.0417955  
C105     C      0.016300000000     0.669400000000     0.113040000000    -0.0421339  
C106     C      0.985200000000     0.646490000000     0.070680000000    -0.0130695  
C107     C      0.005990000000     0.656550000000     0.165170000000     0.0105497  
C108     C      0.991650000000     0.651130000000     0.103660000000     0.011511   
C109     C      0.015310000000     0.657550000000     0.197790000000    -0.0131285  
C110     C      0.974460000000     0.635310000000     0.125300000000    -0.0448379  
C111     C      0.981760000000     0.637750000000     0.155740000000    -0.0410319  
C112     C      0.023270000000     0.672240000000     0.143510000000    -0.0441652  
C113     C      0.987600000000     0.298720000000     0.537100000000    -0.0436212  
C114     C      0.970890000000     0.318080000000     0.587870000000    -0.0129436  
C115     C      0.994220000000     0.333480000000     0.495070000000     0.0111864  
C116     C      0.976950000000     0.322940000000     0.554960000000     0.01143    
C117     C      0.004780000000     0.339310000000     0.463450000000    -0.0127713  
C118     C      0.974200000000     0.352290000000     0.542420000000    -0.0422804  
C119     C      0.982610000000     0.357480000000     0.512610000000    -0.0434574  
C120     C      0.996010000000     0.303930000000     0.507300000000    -0.0421013  
C121     C      0.043230000000     0.353560000000     0.876520000000    -0.0413521  
C122     C      0.018140000000     0.377600000000     0.921790000000    -0.0132216  
C123     C      0.025350000000     0.363970000000     0.825920000000     0.0116678  
C124     C      0.020090000000     0.372260000000     0.888410000000     0.0108019  
C125     C      0.029550000000     0.361150000000     0.792450000000    -0.0131972  
C126     C      0.999750000000     0.386990000000     0.868770000000    -0.0433717  
C127     C      0.002510000000     0.383060000000     0.837770000000    -0.0428865  
C128     C      0.045720000000     0.349290000000     0.845580000000    -0.0442601  
C129     C      0.061990000000     0.154360000000     0.685430000000    -0.0421457  
C130     C      0.043800000000     0.103580000000     0.706190000000    -0.0133893  
C131     C      0.045810000000     0.202730000000     0.707280000000     0.0115395  
C132     C      0.044380000000     0.138160000000     0.706470000000     0.0117224  
C133     C      0.046310000000     0.237310000000     0.707680000000    -0.0129798  
C134     C      0.028010000000     0.154530000000     0.728320000000    -0.0435865  
C135     C      0.028930000000     0.186510000000     0.728860000000    -0.0422264  
C136     C      0.062470000000     0.186370000000     0.685640000000    -0.0435387  
C137     C      0.026160000000     0.620810000000     0.486690000000    -0.0434441  
C138     C      0.034100000000     0.647950000000     0.536130000000    -0.0128842  
C139     C      0.032130000000     0.647530000000     0.439250000000     0.0105814  
C140     C      0.032000000000     0.648050000000     0.502380000000     0.0109892  
C141     C      0.034320000000     0.646880000000     0.405530000000    -0.012472   
C142     C      0.036670000000     0.675260000000     0.486280000000    -0.0430586  
C143     C      0.036660000000     0.675020000000     0.454920000000    -0.0429757  
C144     C      0.026140000000     0.620570000000     0.455340000000    -0.0430844  
C145     C      0.952500000000     0.508790000000     0.630860000000    -0.0435808  
C146     C      0.950000000000     0.564770000000     0.645060000000    -0.0127668  
C147     C      0.952390000000     0.468840000000     0.668810000000     0.0106137  
C148     C      0.951240000000     0.531320000000     0.653280000000     0.0110832  
C149     C      0.952540000000     0.435390000000     0.677040000000    -0.0123271  
C150     C      0.951290000000     0.522400000000     0.683520000000    -0.0427723  
C151     C      0.951970000000     0.491380000000     0.691240000000    -0.0431466  
C152     C      0.953140000000     0.477770000000     0.638580000000    -0.042507   
C153     C      0.972140000000     0.816870000000     0.655720000000    -0.0432943  
C154     C      0.985090000000     0.775030000000     0.618610000000    -0.0144432  
C155     C      0.002210000000     0.863580000000     0.658710000000     0.0104194  
C156     C      0.991400000000     0.805620000000     0.633050000000     0.0136017  
C157     C      0.007550000000     0.895090000000     0.671530000000    -0.0127952  
C158     C      0.016210000000     0.823530000000     0.623440000000    -0.0440994  
C159     C      0.021690000000     0.852180000000     0.636310000000    -0.0422394  
C160     C      0.977410000000     0.845690000000     0.668350000000    -0.0424336  
C161     C      0.939010000000     0.678600000000     0.788290000000    -0.044129   
C162     C      0.955950000000     0.688000000000     0.734830000000    -0.0128816  
C163     C      0.964220000000     0.703410000000     0.830400000000     0.0109381  
C164     C      0.958960000000     0.693190000000     0.768180000000     0.011305   
C165     C      0.966760000000     0.709080000000     0.863710000000    -0.0126042  
C166     C      0.981110000000     0.713480000000     0.779400000000    -0.0422492  
C167     C      0.983890000000     0.718350000000     0.810260000000    -0.0434883  
C168     C      0.941450000000     0.683880000000     0.819110000000    -0.0419539  
C169     C      0.885580000000     0.011470000000     0.395400000000    -0.0439117  
C170     C      0.937370000000     0.991810000000     0.378960000000    -0.0130726  
C171     C      0.838470000000     0.991490000000     0.373980000000     0.0107994  
C172     C      0.902910000000     0.992210000000     0.376770000000     0.0112457  
C173     C      0.803960000000     0.990830000000     0.372990000000    -0.0125418  
C174     C      0.887730000000     0.972370000000     0.356950000000    -0.0421804  
C175     C      0.855790000000     0.972170000000     0.355400000000    -0.0436567  
C176     C      0.853640000000     0.010980000000     0.394140000000    -0.0418766  
C177     C      0.726620000000     0.999840000000     0.180220000000    -0.0441753  
C178     C      0.704280000000     0.980580000000     0.131520000000    -0.0136956  
C179     C      0.703360000000     0.987640000000     0.228260000000     0.0111853  
C180     C      0.703380000000     0.983830000000     0.165170000000     0.0122666  
C181     C      0.704260000000     0.988200000000     0.262050000000    -0.0128243  
C182     C      0.680320000000     0.969440000000     0.181950000000    -0.0423768  
C183     C      0.680180000000     0.971530000000     0.213210000000    -0.0437603  
C184     C      0.726790000000     0.001450000000     0.211500000000    -0.0415113  
C185     C      0.562960000000     0.078900000000     0.308570000000    -0.0427426  
C186     C      0.604300000000     0.082200000000     0.347960000000    -0.0133754  
C187     C      0.509120000000     0.081060000000     0.321900000000     0.0109312  
C188     C      0.571110000000     0.080830000000     0.338970000000     0.0116144  
C189     C      0.475930000000     0.081330000000     0.312830000000    -0.0126323  
C190     C      0.548030000000     0.082010000000     0.360820000000    -0.0439586  
C191     C      0.517250000000     0.082020000000     0.352340000000    -0.042131   
C192     C      0.532180000000     0.078940000000     0.300100000000    -0.0433351  
C193     C      0.191750000000     0.966060000000     0.317730000000    -0.0420241  
C194     C      0.149010000000     0.983530000000     0.351930000000    -0.0129597  
C195     C      0.243580000000     0.985450000000     0.323200000000     0.0109893  
C196     C      0.181930000000     0.984380000000     0.341760000000     0.0111035  
C197     C      0.276780000000     0.985270000000     0.313890000000    -0.0130341  
C198     C      0.203360000000     0.002640000000     0.356920000000    -0.0439003  
C199     C      0.233970000000     0.002900000000     0.347950000000    -0.0414135  
C200     C      0.222270000000     0.966730000000     0.308410000000    -0.0446871  
C201     C      0.403080000000     0.042190000000     0.129440000000    -0.0447075  
C202     C      0.387620000000     0.028920000000     0.076360000000    -0.0136746  
C203     C      0.382100000000     0.014920000000     0.172310000000     0.0111678  
C204     C      0.384670000000     0.025000000000     0.109870000000     0.0111067  
C205     C      0.382280000000     0.008100000000     0.205500000000    -0.0126601  
C206     C      0.365060000000     0.002630000000     0.121800000000    -0.0410937  
C207     C      0.363640000000     0.997770000000     0.152750000000    -0.0445949  
C208     C      0.401940000000     0.037060000000     0.160360000000    -0.0419227  
C209     C      0.407290000000     0.013620000000     0.463690000000    -0.0430309  
C210     C      0.381970000000     0.002380000000     0.414030000000    -0.0126277  
C211     C      0.379980000000     0.006270000000     0.510590000000     0.0110578  
C212     C      0.380600000000     0.006820000000     0.447500000000     0.0108484  
C213     C      0.380520000000     0.001360000000     0.544020000000    -0.0127901  
C214     C      0.353180000000     0.001660000000     0.463090000000    -0.0432599  
C215     C      0.352860000000     0.001460000000     0.494430000000    -0.0423415  
C216     C      0.406970000000     0.013410000000     0.495030000000    -0.0438625  
C217     C      0.325490000000     0.972020000000     0.829620000000    -0.0421244  
C218     C      0.358780000000     0.991110000000     0.872020000000    -0.0135448  
C219     C      0.332980000000     0.989330000000     0.778280000000     0.0115943  
C220     C      0.349180000000     0.991220000000     0.839500000000     0.0115295  
C221     C      0.326160000000     0.985850000000     0.745260000000    -0.014219   
C222     C      0.364870000000     0.009300000000     0.818500000000    -0.0439924  
C223     C      0.357080000000     0.008100000000     0.788110000000    -0.0407323  
C224     C      0.317410000000     0.971150000000     0.799310000000    -0.0450958  
C225     C      0.167220000000     0.007470000000     0.596550000000    -0.0437654  
C226     C      0.115320000000     0.989930000000     0.614820000000    -0.0133498  
C227     C      0.214240000000     0.983530000000     0.613950000000     0.0115575  
C228     C      0.149810000000     0.987460000000     0.614320000000     0.0112939  
C229     C      0.248780000000     0.982040000000     0.614360000000    -0.0130976  
C230     C      0.164880000000     0.964660000000     0.630950000000    -0.0419416  
C231     C      0.196810000000     0.962960000000     0.631080000000    -0.0437632  
C232     C      0.199110000000     0.005280000000     0.596090000000    -0.0420352  
C233     C      0.669480000000     0.048460000000     0.513250000000    -0.0434194  
C234     C      0.694910000000     0.027760000000     0.466670000000    -0.0127244  
C235     C      0.698460000000     0.057850000000     0.558810000000     0.0108239  
C236     C      0.696300000000     0.039480000000     0.498380000000     0.0111592  
C237     C      0.699080000000     0.064440000000     0.591930000000    -0.0122477  
C238     C      0.724310000000     0.040350000000     0.513740000000    -0.0430193  
C239     C      0.725350000000     0.049320000000     0.543800000000    -0.0430608  
C240     C      0.670520000000     0.057400000000     0.543320000000    -0.0423168  
C241     C      0.494560000000     0.062720000000     0.702140000000    -0.0438535  
C242     C      0.445790000000     0.064010000000     0.671730000000    -0.0132426  
C243     C      0.544290000000     0.067070000000     0.678170000000     0.0105643  
C244     C      0.480160000000     0.063140000000     0.674000000000     0.0112169  
C245     C      0.578460000000     0.070870000000     0.680500000000    -0.0121456  
C246     C      0.498140000000     0.064290000000     0.647940000000    -0.04277    
C247     C      0.529990000000     0.066130000000     0.650000000000    -0.0432197  
C248     C      0.526420000000     0.064580000000     0.704200000000    -0.0425445  
C249     C      0.866440000000     0.025090000000     0.731940000000    -0.0444308  
C250     C      0.918460000000     0.010680000000     0.711470000000    -0.0131827  
C251     C      0.819620000000     0.003640000000     0.711240000000     0.0115145  
C252     C      0.883950000000     0.008880000000     0.710840000000     0.0113271  
C253     C      0.785270000000     0.000060000000     0.712120000000    -0.0129937  
C254     C      0.869020000000     0.989710000000     0.690200000000    -0.0417909  
C255     C      0.837140000000     0.987330000000     0.690220000000    -0.0438314  
C256     C      0.834580000000     0.022330000000     0.732260000000    -0.0421346  
C257     C      0.658650000000     0.996260000000     0.882950000000    -0.0413951  
C258     C      0.691970000000     0.014400000000     0.925920000000    -0.0131124  
C259     C      0.670320000000     0.009870000000     0.831310000000     0.0113233  
C260     C      0.683420000000     0.013910000000     0.893130000000     0.0112403  
C261     C      0.664690000000     0.005520000000     0.798180000000    -0.0133145  
C262     C      0.701880000000     0.029080000000     0.872090000000    -0.0447799  
C263     C      0.695620000000     0.026790000000     0.841450000000    -0.0410986  
C264     C      0.652050000000     0.994430000000     0.852340000000    -0.0452544  
C265     C      0.284950000000     0.863500000000     0.995640000000    -0.0420685  
C266     C      0.302170000000     0.918150000000     0.003850000000    -0.0136337  
C267     C      0.305200000000     0.821670000000     0.025660000000     0.011661   
C268     C      0.303510000000     0.884440000000     0.011120000000     0.00998269 
C269     C      0.305460000000     0.788160000000     0.033840000000    -0.0130749  
C270     C      0.322670000000     0.873780000000     0.034130000000    -0.0417664  
C271     C      0.323660000000     0.842630000000     0.041220000000    -0.044628   
C272     C      0.285650000000     0.832400000000     0.002990000000    -0.0442072  
C273     C      0.136040000000     0.715770000000     0.977720000000    -0.0441015  
C274     C      0.083850000000     0.704610000000     0.955990000000    -0.0131743  
C275     C      0.181210000000     0.687660000000     0.961750000000     0.0113374  
C276     C      0.117750000000     0.698490000000     0.958150000000     0.0116528  
C277     C      0.215330000000     0.682530000000     0.962870000000    -0.0130922  
C278     C      0.131610000000     0.676380000000     0.939740000000    -0.0419796  
C279     C      0.163020000000     0.670850000000     0.941700000000    -0.0444185  
C280     C      0.167550000000     0.710690000000     0.979200000000    -0.0415802  
C281     C      0.498810000000     0.686560000000     0.059430000000    -0.0421387  
C282     C      0.541020000000     0.647590000000     0.055260000000    -0.0137545  
C283     C      0.445410000000     0.671460000000     0.061770000000     0.010382   
C284     C      0.507680000000     0.655720000000     0.057840000000     0.0118907  
C285     C      0.412020000000     0.679780000000     0.061590000000    -0.0118417  
C286     C      0.485190000000     0.632790000000     0.058170000000    -0.0447068  
C287     C      0.454270000000     0.640620000000     0.060050000000    -0.041673   
C288     C      0.467880000000     0.694390000000     0.061230000000    -0.0434207  
C289     C      0.633380000000     0.861220000000     0.988730000000    -0.0417798  
C290     C      0.620590000000     0.908510000000     0.018850000000    -0.0135271  
C291     C      0.613660000000     0.811140000000     0.002590000000     0.010524   
C292     C      0.619170000000     0.874400000000     0.013840000000     0.0107944  
C293     C      0.609350000000     0.777620000000     0.995690000000    -0.0122031  
C294     C      0.602130000000     0.855680000000     0.033260000000    -0.0441472  
C295     C      0.599250000000     0.824350000000     0.027580000000    -0.0420619  
C296     C      0.630880000000     0.829820000000     0.983300000000    -0.0427484  
C297     C      0.815550000000     0.721110000000     0.971880000000    -0.0452402  
C298     C      0.871640000000     0.708300000000     0.976310000000    -0.0133778  
C299     C      0.777250000000     0.696170000000     0.002950000000     0.0108152  
C300     C      0.838640000000     0.703060000000     0.984780000000     0.0122121  
C301     C      0.744870000000     0.693970000000     0.014430000000    -0.0133985  
C302     C      0.830820000000     0.681890000000     0.007220000000    -0.0422346  
C303     C      0.800380000000     0.678270000000     0.016000000000    -0.0437046  
C304     C      0.785170000000     0.717930000000     0.981110000000    -0.0406647  
C305     C      0.298100000000     0.517720000000     0.040980000000    -0.044226   
C306     C      0.307500000000     0.574730000000     0.044740000000    -0.0132991  
C307     C      0.340200000000     0.481430000000     0.042280000000     0.0106557  
C308     C      0.318800000000     0.542210000000     0.042910000000     0.0112314  
C309     C      0.351480000000     0.448860000000     0.041970000000    -0.0122344  
C310     C      0.350310000000     0.536100000000     0.043900000000    -0.0422228  
C311     C      0.360950000000     0.505930000000     0.043440000000    -0.043685   
C312     C      0.308740000000     0.487550000000     0.040600000000    -0.042086   
C313     C      0.209390000000     0.334100000000     0.045120000000    -0.044547   
C314     C      0.263680000000     0.323550000000     0.028480000000    -0.013243   
C315     C      0.165770000000     0.312400000000     0.018760000000     0.00997863 
C316     C      0.229540000000     0.319810000000     0.024990000000     0.011842   
C317     C      0.131620000000     0.308160000000     0.015770000000    -0.0133748  
C318     C      0.217540000000     0.301170000000     0.002160000000    -0.0441761  
C319     C      0.185930000000     0.297670000000     0.998950000000    -0.042319   
C320     C      0.177810000000     0.330180000000     0.042210000000    -0.0412177  
C321     C      0.332070000000     0.177450000000     0.971250000000    -0.0440507  
C322     C      0.334190000000     0.122960000000     0.952440000000    -0.0137264  
C323     C      0.364170000000     0.217360000000     0.949890000000     0.0114491  
C324     C      0.345010000000     0.155750000000     0.951810000000     0.0122521  
C325     C      0.373580000000     0.250560000000     0.948040000000    -0.0136737  
C326     C      0.367050000000     0.165270000000     0.930860000000    -0.0421696  
C327     C      0.376670000000     0.195780000000     0.930030000000    -0.0448941  
C328     C      0.341280000000     0.208040000000     0.970040000000    -0.0407533  
C329     C      0.690130000000     0.529200000000     0.966560000000    -0.0430176  
C330     C      0.650410000000     0.570990000000     0.964820000000    -0.0129492  
C331     C      0.675950000000     0.475520000000     0.963690000000     0.0104633  
C332     C      0.659190000000     0.537670000000     0.965330000000     0.0114728  
C333     C      0.684720000000     0.442210000000     0.963450000000    -0.0118884  
C334     C      0.636660000000     0.514830000000     0.963830000000    -0.0438085  
C335     C      0.644990000000     0.483970000000     0.963080000000    -0.0420798  
C336     C      0.698450000000     0.498320000000     0.965910000000    -0.0429868  
C337     C      0.536580000000     0.315040000000     0.961400000000    -0.0446024  
C338     C      0.593640000000     0.323900000000     0.965610000000    -0.0139409  
C339     C      0.500830000000     0.357650000000     0.960610000000     0.0115506  
C340     C      0.561210000000     0.335480000000     0.964090000000     0.0117939  
C341     C      0.468380000000     0.369180000000     0.959410000000    -0.0132315  
C342     C      0.555400000000     0.367070000000     0.965200000000    -0.0414729  
C343     C      0.525420000000     0.378080000000     0.963640000000    -0.0443909  
C344     C      0.506620000000     0.326060000000     0.959690000000    -0.0412294  
C345     C      0.871360000000     0.394960000000     0.026800000000    -0.0437509  
C346     C      0.924980000000     0.381030000000     0.043070000000    -0.012775   
C347     C      0.826790000000     0.370810000000     0.049210000000     0.0112448  
C348     C      0.890730000000     0.377620000000     0.045300000000     0.011323   
C349     C      0.792570000000     0.366800000000     0.050690000000    -0.0125632  
C350     C      0.877830000000     0.357400000000     0.066270000000    -0.042244   
C351     C      0.846120000000     0.353810000000     0.068030000000    -0.043699   
C352     C      0.839650000000     0.391750000000     0.028910000000    -0.0422368  
C353     C      0.669640000000     0.198910000000     0.034110000000    -0.0410864  
C354     C      0.702230000000     0.241980000000     0.054330000000    -0.0138988  
C355     C      0.675960000000     0.146550000000     0.051460000000     0.0117812  
C356     C      0.693830000000     0.208530000000     0.052560000000     0.0117364  
C357     C      0.664910000000     0.113870000000     0.052400000000    -0.0132139  
C358     C      0.708920000000     0.186910000000     0.070570000000    -0.0448247  
C359     C      0.699940000000     0.156190000000     0.070150000000    -0.0420705  
C360     C      0.660960000000     0.168160000000     0.033380000000    -0.0438645  
H1       H      0.993760000000     0.230910000000     0.358660000000     0.102763   
H2       H      0.033230000000     0.098970000000     0.308200000000     0.042084   
H3       H      0.073130000000     0.100710000000     0.316300000000     0.0369169  
H4       H      0.013380000000     0.203890000000     0.314510000000     0.0399527  
H5       H      0.015450000000     0.149730000000     0.301010000000     0.0363368  
H6       H      0.052720000000     0.237010000000     0.383430000000     0.0367512  
H7       H      0.081350000000     0.133990000000     0.371370000000     0.0371115  
H8       H      0.077860000000     0.187880000000     0.386080000000     0.0353501  
H9       H      0.058790000000     0.246160000000     0.344860000000     0.0405193  
H10      H      0.047940000000     0.090920000000     0.373380000000     0.1017     
H11      H      0.993040000000     0.327620000000     0.255590000000     0.102336   
H12      H      0.026530000000     0.385540000000     0.124030000000     0.0397634  
H13      H      0.066250000000     0.375770000000     0.124350000000     0.0372936  
H14      H      0.003750000000     0.378830000000     0.226640000000     0.0393878  
H15      H      0.004300000000     0.390110000000     0.172790000000     0.0361137  
H16      H      0.057120000000     0.320870000000     0.263460000000     0.0370905  
H17      H      0.079650000000     0.327510000000     0.160950000000     0.0376861  
H18      H      0.078550000000     0.315560000000     0.214640000000     0.0355759  
H19      H      0.050890000000     0.360750000000     0.269130000000     0.041183   
H20      H      0.035570000000     0.318400000000     0.121400000000     0.102603   
H21      H      0.998640000000     0.555910000000     0.299440000000     0.102911   
H22      H      0.934560000000     0.431000000000     0.367330000000     0.0356625  
H23      H      0.935740000000     0.417820000000     0.329260000000     0.0417248  
H24      H      0.947620000000     0.538090000000     0.361550000000     0.0383403  
H25      H      0.947130000000     0.484940000000     0.379530000000     0.0369967  
H26      H      0.938580000000     0.559700000000     0.280970000000     0.0346336  
H27      H      0.952240000000     0.452740000000     0.288230000000     0.0378124  
H28      H      0.952690000000     0.505890000000     0.270260000000     0.0366683  
H29      H      0.934480000000     0.572670000000     0.318560000000     0.041982   
H30      H      0.996620000000     0.435610000000     0.354960000000     0.102987   
H31      H      0.031310000000     0.899290000000     0.304700000000     0.102246   
H32      H      0.055700000000     0.755750000000     0.287930000000     0.0366865  
H33      H      0.058120000000     0.744680000000     0.326430000000     0.0399942  
H34      H      0.073750000000     0.860830000000     0.302270000000     0.0383213  
H35      H      0.073960000000     0.807500000000     0.285140000000     0.0355012  
H36      H      0.026460000000     0.888770000000     0.368940000000     0.0388941  
H37      H      0.015170000000     0.782690000000     0.358960000000     0.0395756  
H38      H      0.013910000000     0.836160000000     0.375320000000     0.0357437  
H39      H      0.066060000000     0.890700000000     0.359910000000     0.0384229  
H40      H      0.994590000000     0.760390000000     0.309110000000     0.103101   
H41      H      0.967890000000     0.668730000000     0.208780000000     0.102264   
H42      H      0.003940000000     0.632400000000     0.061020000000     0.0398677  
H43      H      0.963670000000     0.633400000000     0.067140000000     0.0379217  
H44      H      0.042580000000     0.686240000000     0.150110000000     0.0355467  
H45      H      0.030400000000     0.681170000000     0.096730000000     0.0391296  
H46      H      0.026390000000     0.635450000000     0.203750000000     0.0399232  
H47      H      0.955790000000     0.620530000000     0.118620000000     0.0357322  
H48      H      0.968690000000     0.624670000000     0.171910000000     0.0388293  
H49      H      0.032750000000     0.675650000000     0.201720000000     0.0378935  
H50      H      0.983850000000     0.696290000000     0.065930000000     0.102094   
H51      H      0.957960000000     0.329770000000     0.449350000000     0.103296   
H52      H      0.952330000000     0.333560000000     0.595720000000     0.0402197  
H53      H      0.963450000000     0.294140000000     0.592170000000     0.0367458  
H54      H      0.004570000000     0.285050000000     0.493970000000     0.0378672  
H55      H      0.990040000000     0.275960000000     0.546430000000     0.0375441  
H56      H      0.012810000000     0.363340000000     0.460980000000     0.0369502  
H57      H      0.966190000000     0.371290000000     0.555900000000     0.0376839  
H58      H      0.980700000000     0.380360000000     0.503450000000     0.0372088  
H59      H      0.024900000000     0.324660000000     0.458210000000     0.0400165  
H60      H      0.019810000000     0.325180000000     0.593760000000     0.103286   
H61      H      0.981460000000     0.347580000000     0.789510000000     0.102291   
H62      H      0.038610000000     0.390840000000     0.928940000000     0.0407892  
H63      H      0.997780000000     0.391580000000     0.927790000000     0.0373252  
H64      H      0.063880000000     0.334900000000     0.836980000000     0.0361353  
H65      H      0.059510000000     0.342420000000     0.891230000000     0.0396644  
H66      H      0.036230000000     0.383850000000     0.783260000000     0.0383518  
H67      H      0.982000000000     0.401890000000     0.877370000000     0.03563    
H68      H      0.986990000000     0.395140000000     0.822990000000     0.0385127  
H69      H      0.048680000000     0.345300000000     0.786990000000     0.0400169  
H70      H      0.013250000000     0.328150000000     0.926870000000     0.102931   
H71      H      0.996510000000     0.235550000000     0.705230000000     0.103207   
H72      H      0.067430000000     0.095020000000     0.710010000000     0.037437   
H73      H      0.029400000000     0.094310000000     0.724650000000     0.040659   
H74      H      0.075930000000     0.198330000000     0.668970000000     0.0363135  
H75      H      0.075230000000     0.142200000000     0.668700000000     0.0380183  
H76      H      0.055720000000     0.245260000000     0.729480000000     0.0366494  
H77      H      0.014600000000     0.142580000000     0.745050000000     0.0361514  
H78      H      0.016250000000     0.198670000000     0.746000000000     0.0379457  
H79      H      0.061780000000     0.246510000000     0.690040000000     0.0404265  
H80      H      0.030630000000     0.106470000000     0.659030000000     0.102819   
H81      H      0.985380000000     0.656860000000     0.404530000000     0.102984   
H82      H      0.042420000000     0.625370000000     0.544280000000     0.037609   
H83      H      0.050820000000     0.665490000000     0.543830000000     0.0396349  
H84      H      0.022150000000     0.599210000000     0.443630000000     0.0371791  
H85      H      0.022160000000     0.599640000000     0.498720000000     0.0371822  
H86      H      0.051690000000     0.663710000000     0.397730000000     0.0387939  
H87      H      0.040870000000     0.696580000000     0.497980000000     0.0375585  
H88      H      0.040880000000     0.696140000000     0.442890000000     0.0374478  
H89      H      0.042670000000     0.624150000000     0.397810000000     0.0381614  
H90      H      0.984780000000     0.655470000000     0.536220000000     0.103184   
H91      H      0.002360000000     0.437980000000     0.675380000000     0.102994   
H92      H      0.940340000000     0.567890000000     0.622190000000     0.0374463  
H93      H      0.934840000000     0.577260000000     0.660940000000     0.0393739  
H94      H      0.953950000000     0.460710000000     0.620970000000     0.0375792  
H95      H      0.952860000000     0.515200000000     0.607400000000     0.0370155  
H96      H      0.941280000000     0.431790000000     0.699130000000     0.0375283  
H97      H      0.950700000000     0.539460000000     0.701140000000     0.0382638  
H98      H      0.951870000000     0.484970000000     0.714700000000     0.0371993  
H99      H      0.938790000000     0.422120000000     0.660550000000     0.0388504  
H100     H      0.999650000000     0.564340000000     0.649560000000     0.103611   
H101     H      0.995970000000     0.912350000000     0.627060000000     0.102925   
H102     H      0.962080000000     0.766360000000     0.625040000000     0.0433142  
H103     H      0.985260000000     0.778080000000     0.593870000000     0.0340011  
H104     H      0.962040000000     0.854060000000     0.685540000000     0.036004   
H105     H      0.952840000000     0.803500000000     0.663460000000     0.0369233  
H106     H      0.992260000000     0.899600000000     0.690970000000     0.0383098  
H107     H      0.031250000000     0.815360000000     0.605870000000     0.0363219  
H108     H      0.040880000000     0.865690000000     0.628520000000     0.0380706  
H109     H      0.031330000000     0.896640000000     0.680240000000     0.0382732  
H110     H      0.031680000000     0.760630000000     0.627950000000     0.101489   
H111     H      0.971120000000     0.659550000000     0.868920000000     0.102796   
H112     H      0.937860000000     0.670890000000     0.729620000000     0.0385955  
H113     H      0.948850000000     0.709850000000     0.724100000000     0.038578   
H114     H      0.925660000000     0.672580000000     0.834200000000     0.0385148  
H115     H      0.921420000000     0.663240000000     0.780160000000     0.0358114  
H116     H      0.986080000000     0.724780000000     0.868920000000     0.0389093  
H117     H      0.996340000000     0.725440000000     0.764250000000     0.0390604  
H118     H      0.001300000000     0.733920000000     0.818370000000     0.035556   
H119     H      0.945670000000     0.720780000000     0.871630000000     0.0379549  
H120     H      0.004270000000     0.675230000000     0.735060000000     0.102731   
H121     H      0.806090000000     0.039230000000     0.361020000000     0.103044   
H122     H      0.945830000000     0.008550000000     0.395840000000     0.0389948  
H123     H      0.944730000000     0.968760000000     0.386720000000     0.0390527  
H124     H      0.840700000000     0.025820000000     0.408900000000     0.038562   
H125     H      0.896730000000     0.026700000000     0.411130000000     0.0362645  
H126     H      0.795560000000     0.973390000000     0.356780000000     0.0385799  
H127     H      0.900640000000     0.957000000000     0.342690000000     0.0389901  
H128     H      0.844620000000     0.956730000000     0.339870000000     0.0361219  
H129     H      0.795070000000     0.983840000000     0.395330000000     0.037985   
H130     H      0.938220000000     0.002840000000     0.331180000000     0.103044   
H131     H      0.709390000000     0.037960000000     0.259260000000     0.10241    
H132     H      0.724620000000     0.992310000000     0.121870000000     0.042108   
H133     H      0.706500000000     0.955880000000     0.125950000000     0.0364801  
H134     H      0.745310000000     0.013340000000     0.222650000000     0.0382228  
H135     H      0.744950000000     0.010680000000     0.167800000000     0.0364253  
H136     H      0.683740000000     0.976800000000     0.271720000000     0.0402042  
H137     H      0.662550000000     0.956400000000     0.170860000000     0.0372531  
H138     H      0.662200000000     0.960160000000     0.225660000000     0.0358108  
H139     H      0.724330000000     0.974760000000     0.269850000000     0.0377344  
H140     H      0.656400000000     0.994970000000     0.130290000000     0.101994   
H141     H      0.478650000000     0.031580000000     0.310920000000     0.103107   
H142     H      0.617910000000     0.093790000000     0.330190000000     0.04143    
H143     H      0.607000000000     0.095810000000     0.368870000000     0.0365582  
H144     H      0.526350000000     0.077580000000     0.276530000000     0.0370859  
H145     H      0.580440000000     0.077650000000     0.291410000000     0.0383304  
H146     H      0.462450000000     0.095600000000     0.328730000000     0.0407834  
H147     H      0.553850000000     0.083190000000     0.384390000000     0.0371482  
H148     H      0.499750000000     0.083080000000     0.369510000000     0.037876   
H149     H      0.473220000000     0.092190000000     0.290440000000     0.0357786  
H150     H      0.601520000000     0.033020000000     0.355980000000     0.102894   
H151     H      0.274040000000     0.035020000000     0.310340000000     0.102637   
H152     H      0.143690000000     0.960030000000     0.359960000000     0.0373504  
H153     H      0.144970000000     0.999260000000     0.371150000000     0.039795   
H154     H      0.229260000000     0.952470000000     0.289770000000     0.0354037  
H155     H      0.175750000000     0.951270000000     0.306150000000     0.0377565  
H156     H      0.290130000000     0.971910000000     0.330610000000     0.0404322  
H157     H      0.196470000000     0.016520000000     0.375880000000     0.0360954  
H158     H      0.250170000000     0.016820000000     0.360260000000     0.0398758  
H159     H      0.279770000000     0.973570000000     0.291940000000     0.0365471  
H160     H      0.136390000000     0.994220000000     0.305670000000     0.102426   
H161     H      0.371110000000     0.056280000000     0.212930000000     0.102486   
H162     H      0.401730000000     0.049300000000     0.070690000000     0.0359372  
H163     H      0.399820000000     0.008600000000     0.067270000000     0.0420109  
H164     H      0.416800000000     0.050140000000     0.174980000000     0.0385555  
H165     H      0.418780000000     0.059200000000     0.120760000000     0.0355957  
H166     H      0.365280000000     0.990060000000     0.211190000000     0.0384651  
H167     H      0.351110000000     0.988660000000     0.107110000000     0.0397171  
H168     H      0.348530000000     0.980200000000     0.161360000000     0.0359493  
H169     H      0.405020000000     0.998690000000     0.211800000000     0.0388953  
H170     H      0.338790000000     0.038840000000     0.074490000000     0.10237    
H171     H      0.368710000000     0.049500000000     0.550050000000     0.10253    
H172     H      0.404790000000     0.993330000000     0.407410000000     0.0387942  
H173     H      0.364730000000     0.985140000000     0.406830000000     0.0386367  
H174     H      0.428070000000     0.017530000000     0.507100000000     0.0364976  
H175     H      0.428610000000     0.017890000000     0.452060000000     0.0373578  
H176     H      0.366660000000     0.980770000000     0.549630000000     0.0417119  
H177     H      0.332290000000     0.996610000000     0.451000000000     0.0372381  
H178     H      0.331760000000     0.996220000000     0.506070000000     0.0384121  
H179     H      0.404140000000     0.996130000000     0.551730000000     0.0355326  
H180     H      0.372280000000     0.051260000000     0.409740000000     0.102791   
H181     H      0.320590000000     0.035190000000     0.741030000000     0.102044   
H182     H      0.365930000000     0.967520000000     0.878210000000     0.0376151  
H183     H      0.378880000000     0.006230000000     0.875840000000     0.040754   
H184     H      0.299350000000     0.955810000000     0.792190000000     0.035356   
H185     H      0.313470000000     0.957450000000     0.845350000000     0.0376431  
H186     H      0.343030000000     0.969600000000     0.735520000000     0.0436209  
H187     H      0.383560000000     0.023920000000     0.825490000000     0.0363938  
H188     H      0.370140000000     0.021580000000     0.772250000000     0.0409284  
H189     H      0.303120000000     0.975600000000     0.742020000000     0.0349313  
H190     H      0.311430000000     0.002230000000     0.883270000000     0.102341   
H191     H      0.248650000000     0.031200000000     0.622830000000     0.102862   
H192     H      0.107160000000     0.009810000000     0.601420000000     0.0404445  
H193     H      0.105570000000     0.969070000000     0.604230000000     0.0363297  
H194     H      0.212030000000     0.020890000000     0.582110000000     0.0372123  
H195     H      0.156160000000     0.024810000000     0.583000000000     0.0356925  
H196     H      0.257010000000     0.963540000000     0.629500000000     0.0408065  
H197     H      0.151930000000     0.948390000000     0.644170000000     0.0373379  
H198     H      0.207880000000     0.945580000000     0.644580000000     0.0358375  
H199     H      0.257090000000     0.976180000000     0.591510000000     0.0353492  
H200     H      0.118100000000     0.988030000000     0.663700000000     0.102414   
H201     H      0.695370000000     0.015050000000     0.597930000000     0.10347    
H202     H      0.711980000000     0.009130000000     0.463470000000     0.0390845  
H203     H      0.672010000000     0.017820000000     0.461820000000     0.0385141  
H204     H      0.649460000000     0.063430000000     0.554660000000     0.0375173  
H205     H      0.647650000000     0.047910000000     0.501780000000     0.0372232  
H206     H      0.721210000000     0.075120000000     0.598380000000     0.0370753  
H207     H      0.745240000000     0.033470000000     0.502630000000     0.0377577  
H208     H      0.747050000000     0.049040000000     0.555530000000     0.0374985  
H209     H      0.681000000000     0.081280000000     0.597930000000     0.0393749  
H210     H      0.704880000000     0.074600000000     0.452550000000     0.103069   
H211     H      0.581420000000     0.021020000000     0.680260000000     0.103297   
H212     H      0.435560000000     0.073150000000     0.692750000000     0.03685    
H213     H      0.438880000000     0.079670000000     0.653250000000     0.0408552  
H214     H      0.537090000000     0.064750000000     0.726120000000     0.0377909  
H215     H      0.481130000000     0.061580000000     0.722510000000     0.036795   
H216     H      0.587390000000     0.083710000000     0.660810000000     0.0372693  
H217     H      0.487450000000     0.064400000000     0.626020000000     0.0381588  
H218     H      0.543430000000     0.067520000000     0.629640000000     0.0370172  
H219     H      0.584260000000     0.085030000000     0.700460000000     0.0392236  
H220     H      0.447110000000     0.014170000000     0.668350000000     0.102751   
H221     H      0.781990000000     0.049850000000     0.709290000000     0.102444   
H222     H      0.926540000000     0.028740000000     0.727150000000     0.0370918  
H223     H      0.927470000000     0.988550000000     0.720080000000     0.0404596  
H224     H      0.821560000000     0.034700000000     0.749000000000     0.0374565  
H225     H      0.877430000000     0.039590000000     0.748420000000     0.0356979  
H226     H      0.777340000000     0.983440000000     0.694880000000     0.0407497  
H227     H      0.882070000000     0.976490000000     0.674130000000     0.039801   
H228     H      0.826190000000     0.972440000000     0.674040000000     0.0363399  
H229     H      0.778540000000     0.990300000000     0.734170000000     0.0363442  
H230     H      0.916810000000     0.023580000000     0.664200000000     0.102846   
H231     H      0.666690000000     0.055110000000     0.792570000000     0.101853   
H232     H      0.702930000000     0.992130000000     0.931460000000     0.041072   
H233     H      0.709290000000     0.032410000000     0.930670000000     0.0377639  
H234     H      0.633010000000     0.980430000000     0.845030000000     0.0354651  
H235     H      0.644670000000     0.983530000000     0.898650000000     0.0390504  
H236     H      0.680760000000     0.987810000000     0.789660000000     0.0418542  
H237     H      0.721620000000     0.042130000000     0.879300000000     0.0359067  
H238     H      0.710750000000     0.037980000000     0.825660000000     0.0400657  
H239     H      0.641170000000     0.996750000000     0.794170000000     0.0360795  
H240     H      0.644570000000     0.026270000000     0.936450000000     0.101872   
H241     H      0.319300000000     0.779140000000     0.987610000000     0.103192   
H242     H      0.285340000000     0.923030000000     0.985760000000     0.0391588  
H243     H      0.294310000000     0.930760000000     0.024100000000     0.0385126  
H244     H      0.270930000000     0.816660000000     0.990990000000     0.039401   
H245     H      0.269740000000     0.871210000000     0.978030000000     0.0355719  
H246     H      0.321650000000     0.783530000000     0.052540000000     0.0382723  
H247     H      0.336880000000     0.889620000000     0.046600000000     0.0380322  
H248     H      0.338670000000     0.834960000000     0.059020000000     0.0358328  
H249     H      0.282420000000     0.781510000000     0.042170000000     0.0385589  
H250     H      0.351080000000     0.915220000000     0.994260000000     0.102766   
H251     H      0.211150000000     0.679480000000     0.011640000000     0.101722   
H252     H      0.076550000000     0.722610000000     0.972140000000     0.0408604  
H253     H      0.078750000000     0.713460000000     0.933160000000     0.0367165  
H254     H      0.181250000000     0.724680000000     0.994080000000     0.0390051  
H255     H      0.126020000000     0.733420000000     0.991650000000     0.0359668  
H256     H      0.221780000000     0.661250000000     0.950700000000     0.03835    
H257     H      0.118090000000     0.663370000000     0.923880000000     0.0376971  
H258     H      0.173140000000     0.653590000000     0.927370000000     0.035784   
H259     H      0.226960000000     0.701720000000     0.951110000000     0.0397878  
H260     H      0.076630000000     0.655310000000     0.960640000000     0.102442   
H261     H      0.415530000000     0.679030000000     0.012880000000     0.103718   
H262     H      0.554270000000     0.661170000000     0.071900000000     0.0425044  
H263     H      0.544820000000     0.622960000000     0.060310000000     0.0349186  
H264     H      0.461470000000     0.718330000000     0.061930000000     0.0368254  
H265     H      0.515850000000     0.704560000000     0.058950000000     0.0391571  
H266     H      0.398880000000     0.663420000000     0.075730000000     0.039272   
H267     H      0.491530000000     0.608870000000     0.056690000000     0.0363829  
H268     H      0.437200000000     0.622650000000     0.059830000000     0.0375892  
H269     H      0.408390000000     0.702810000000     0.071610000000     0.0358649  
H270     H      0.536620000000     0.653200000000     0.006960000000     0.10273    
H271     H      0.624780000000     0.767070000000     0.041090000000     0.101846   
H272     H      0.608630000000     0.920090000000     0.999990000000     0.0391189  
H273     H      0.608400000000     0.915280000000     0.039730000000     0.0389726  
H274     H      0.641950000000     0.820220000000     0.963710000000     0.0361322  
H275     H      0.646200000000     0.875300000000     0.973190000000     0.0384499  
H276     H      0.584510000000     0.772890000000     0.993200000000     0.0355488  
H277     H      0.590620000000     0.865380000000     0.052550000000     0.0356949  
H278     H      0.585520000000     0.810440000000     0.042510000000     0.0366867  
H279     H      0.620040000000     0.771620000000     0.973810000000     0.0419634  
H280     H      0.670440000000     0.904430000000     0.017610000000     0.102262   
H281     H      0.728970000000     0.693090000000     0.967870000000     0.101774   
H282     H      0.873510000000     0.721830000000     0.955260000000     0.0369895  
H283     H      0.882480000000     0.722290000000     0.994240000000     0.0416228  
H284     H      0.767910000000     0.732730000000     0.971450000000     0.0373071  
H285     H      0.821100000000     0.738150000000     0.955100000000     0.0356095  
H286     H      0.742620000000     0.674980000000     0.030940000000     0.0416199  
H287     H      0.848300000000     0.668390000000     0.018230000000     0.0396964  
H288     H      0.795000000000     0.661900000000     0.033460000000     0.0358766  
H289     H      0.739260000000     0.715340000000     0.026790000000     0.0372669  
H290     H      0.876830000000     0.658800000000     0.971070000000     0.102102   
H291     H      0.348850000000     0.451460000000     0.993230000000     0.104087   
H292     H      0.282530000000     0.575500000000     0.049430000000     0.0359086  
H293     H      0.319260000000     0.586500000000     0.063630000000     0.041496   
H294     H      0.292420000000     0.468940000000     0.039220000000     0.0383996  
H295     H      0.273710000000     0.521930000000     0.040010000000     0.0365603  
H296     H      0.374810000000     0.447280000000     0.051780000000     0.0366168  
H297     H      0.366620000000     0.554710000000     0.045250000000     0.0387822  
H298     H      0.385340000000     0.501700000000     0.044270000000     0.0367877  
H299     H      0.336550000000     0.434400000000     0.056400000000     0.0397088  
H300     H      0.317530000000     0.578820000000     0.997030000000     0.103505   
H301     H      0.128160000000     0.357920000000     0.013210000000     0.102568   
H302     H      0.269450000000     0.338880000000     0.047600000000     0.0393587  
H303     H      0.273850000000     0.300820000000     0.033620000000     0.0376882  
H304     H      0.162720000000     0.341190000000     0.058170000000     0.0390956  
H305     H      0.218080000000     0.348170000000     0.063220000000     0.0359528  
H306     H      0.125810000000     0.295420000000     0.994940000000     0.0378045  
H307     H      0.232680000000     0.289430000000     0.986760000000     0.0388955  
H308     H      0.177240000000     0.283340000000     0.981050000000     0.0353173  
H309     H      0.123250000000     0.294020000000     0.034810000000     0.0399275  
H310     H      0.264480000000     0.338630000000     0.981770000000     0.10303    
H311     H      0.383430000000     0.249620000000     0.995870000000     0.102426   
H312     H      0.315910000000     0.119590000000     0.969490000000     0.042267   
H313     H      0.324020000000     0.117390000000     0.930270000000     0.0364498  
H314     H      0.330530000000     0.224430000000     0.984920000000     0.0407321  
H315     H      0.314580000000     0.170820000000     0.987180000000     0.0366885  
H316     H      0.395590000000     0.252880000000     0.935770000000     0.0349051  
H317     H      0.376760000000     0.149080000000     0.915130000000     0.0371213  
H318     H      0.393700000000     0.202570000000     0.913700000000     0.035288   
H319     H      0.356010000000     0.263270000000     0.935000000000     0.042458   
H320     H      0.382070000000     0.108770000000     0.954360000000     0.102047   
H321     H      0.677050000000     0.443190000000     0.011750000000     0.103143   
H322     H      0.665600000000     0.583500000000     0.948990000000     0.039547   
H323     H      0.626550000000     0.574040000000     0.956660000000     0.0387508  
H324     H      0.722440000000     0.492220000000     0.966960000000     0.0369652  
H325     H      0.707810000000     0.546520000000     0.967890000000     0.0387099  
H326     H      0.669810000000     0.429380000000     0.947600000000     0.0385949  
H327     H      0.612650000000     0.520880000000     0.963050000000     0.0368825  
H328     H      0.627300000000     0.466640000000     0.961930000000     0.0376035  
H329     H      0.708510000000     0.439190000000     0.955120000000     0.0372349  
H330     H      0.659940000000     0.571440000000     0.012950000000     0.10247    
H331     H      0.465910000000     0.362470000000     0.007630000000     0.102773   
H332     H      0.594710000000     0.298920000000     0.960950000000     0.0348085  
H333     H      0.607400000000     0.335730000000     0.948120000000     0.0425617  
H334     H      0.487900000000     0.309940000000     0.957700000000     0.0394865  
H335     H      0.540520000000     0.290580000000     0.960610000000     0.0364611  
H336     H      0.467860000000     0.394170000000     0.954730000000     0.034606   
H337     H      0.574110000000     0.383180000000     0.967360000000     0.0395896  
H338     H      0.521440000000     0.402530000000     0.964730000000     0.0364599  
H339     H      0.456140000000     0.357850000000     0.940560000000     0.0420106  
H340     H      0.592040000000     0.330510000000     0.013910000000     0.102498   
H341     H      0.794910000000     0.353960000000     0.003420000000     0.103014   
H342     H      0.931530000000     0.398420000000     0.026000000000     0.0395895  
H343     H      0.933860000000     0.389260000000     0.064990000000     0.0374074  
H344     H      0.825100000000     0.405330000000     0.014440000000     0.0382388  
H345     H      0.880760000000     0.410970000000     0.010710000000     0.0357933  
H346     H      0.785980000000     0.350160000000     0.068440000000     0.0391516  
H347     H      0.892360000000     0.344150000000     0.081060000000     0.0383336  
H348     H      0.836720000000     0.337750000000     0.084070000000     0.0361222  
H349     H      0.781810000000     0.388960000000     0.056960000000     0.0378657  
H350     H      0.926730000000     0.331640000000     0.035460000000     0.103103   
H351     H      0.711770000000     0.099190000000     0.043050000000     0.102074   
H352     H      0.684070000000     0.254020000000     0.067210000000     0.0429912  
H353     H      0.724030000000     0.245300000000     0.066730000000     0.0351392  
H354     H      0.642090000000     0.161380000000     0.019110000000     0.0365457  
H355     H      0.657280000000     0.215260000000     0.020450000000     0.0408645  
H356     H      0.656930000000     0.108580000000     0.075500000000     0.0372433  
H357     H      0.727310000000     0.193860000000     0.085350000000     0.0356583  
H358     H      0.711440000000     0.140000000000     0.084690000000     0.0376809  
H359     H      0.644710000000     0.110670000000     0.037550000000     0.0416651  
H360     H      0.711450000000     0.241410000000     0.006370000000     0.10258    
N1       N      0.012450000000     0.245850000000     0.359180000000    -0.228742   
N2       N      0.046350000000     0.082980000000     0.351310000000    -0.227796   
N3       N      0.011050000000     0.332960000000     0.270130000000    -0.228733   
N4       N      0.037050000000     0.339990000000     0.111330000000    -0.228604   
N5       N      0.980200000000     0.570950000000     0.302040000000    -0.228174   
N6       N      0.978540000000     0.420310000000     0.351550000000    -0.228202   
N7       N      0.036140000000     0.907250000000     0.326310000000    -0.228562   
N8       N      0.013390000000     0.745570000000     0.308450000000    -0.228753   
N9       N      0.989250000000     0.663120000000     0.217810000000    -0.228197   
N10      N      0.983430000000     0.675540000000     0.054220000000    -0.228192   
N11      N      0.980280000000     0.333540000000     0.441750000000    -0.228447   
N12      N      0.998850000000     0.323980000000     0.605060000000    -0.228382   
N13      N      0.001680000000     0.350590000000     0.777300000000    -0.228266   
N14      N      0.017130000000     0.348640000000     0.938420000000    -0.228543   
N15      N      0.015520000000     0.250030000000     0.703730000000    -0.228184   
N16      N      0.033060000000     0.091630000000     0.677280000000    -0.227895   
N17      N      0.004840000000     0.653510000000     0.391270000000    -0.228318   
N18      N      0.004270000000     0.654190000000     0.549790000000    -0.228289   
N19      N      0.983750000000     0.423180000000     0.678180000000    -0.22812    
N20      N      0.980610000000     0.578400000000     0.646000000000    -0.228437   
N21      N      0.002730000000     0.918750000000     0.648690000000    -0.22865    
N22      N      0.009100000000     0.752900000000     0.626260000000    -0.22763    
N23      N      0.970840000000     0.680440000000     0.880410000000    -0.228465   
N24      N      0.984980000000     0.678110000000     0.721470000000    -0.228362   
N25      N      0.791310000000     0.020820000000     0.364970000000    -0.228377   
N26      N      0.951830000000     0.998090000000     0.349910000000    -0.228297   
N27      N      0.706430000000     0.019470000000     0.273890000000    -0.228448   
N28      N      0.676190000000     0.992070000000     0.117420000000    -0.228159   
N29      N      0.463560000000     0.050170000000     0.311670000000    -0.228395   
N30      N      0.616580000000     0.051430000000     0.353260000000    -0.22817    
N31      N      0.289080000000     0.016410000000     0.311390000000    -0.228528   
N32      N      0.127950000000     0.991060000000     0.327400000000    -0.228449   
N33      N      0.375880000000     0.035450000000     0.223530000000    -0.228185   
N34      N      0.357660000000     0.031880000000     0.061790000000    -0.228288   
N35      N      0.369220000000     0.028090000000     0.560540000000    -0.228096   
N36      N      0.376390000000     0.031040000000     0.397830000000    -0.228398   
N37      N      0.326830000000     0.015330000000     0.729450000000    -0.228102   
N38      N      0.333600000000     0.000210000000     0.891860000000    -0.228092   
N39      N      0.262130000000     0.011430000000     0.623450000000    -0.228108   
N40      N      0.103480000000     0.992050000000     0.645560000000    -0.228235   
N41      N      0.694810000000     0.036130000000     0.609090000000    -0.228657   
N42      N      0.701150000000     0.052230000000     0.445020000000    -0.228759   
N43      N      0.594030000000     0.041240000000     0.682490000000    -0.228406   
N44      N      0.433120000000     0.033470000000     0.666080000000    -0.228215   
N45      N      0.769570000000     0.029440000000     0.707890000000    -0.227996   
N46      N      0.931250000000     0.016500000000     0.681580000000    -0.228088   
N47      N      0.668360000000     0.034150000000     0.781340000000    -0.228545   
N48      N      0.665420000000     0.019070000000     0.945540000000    -0.228551   
N49      N      0.313690000000     0.768920000000     0.008110000000    -0.228752   
N50      N      0.332260000000     0.930000000000     0.995080000000    -0.22826    
N51      N      0.226640000000     0.680350000000     0.993780000000    -0.228013   
N52      N      0.065830000000     0.676670000000     0.960700000000    -0.228403   
N53      N      0.400160000000     0.679670000000     0.030870000000    -0.228804   
N54      N      0.552110000000     0.653870000000     0.024840000000    -0.228294   
N55      N      0.621650000000     0.758060000000     0.019570000000    -0.228329   
N56      N      0.652200000000     0.919730000000     0.020030000000    -0.228576   
N57      N      0.722530000000     0.689680000000     0.990210000000    -0.228114   
N58      N      0.888640000000     0.679550000000     0.972790000000    -0.228665   
N59      N      0.352050000000     0.436620000000     0.011380000000    -0.228801   
N60      N      0.313480000000     0.591230000000     0.016710000000    -0.228605   
N61      N      0.115580000000     0.337660000000     0.015340000000    -0.228697   
N62      N      0.277840000000     0.335310000000     0.000960000000    -0.229157   
N63      N      0.377440000000     0.263930000000     0.977980000000    -0.228799   
N64      N      0.359520000000     0.101610000000     0.957870000000    -0.227975   
N65      N      0.682150000000     0.428980000000     0.993530000000    -0.228703   
N66      N      0.653280000000     0.584870000000     0.994640000000    -0.228246   
N67      N      0.452840000000     0.363450000000     0.987990000000    -0.227877   
N68      N      0.606700000000     0.329620000000     0.995380000000    -0.227576   
N69      N      0.780250000000     0.356550000000     0.021800000000    -0.228572   
N70      N      0.939740000000     0.351730000000     0.036060000000    -0.228557   
N71      N      0.688960000000     0.092040000000     0.044050000000    -0.228035   
N72      N      0.705240000000     0.255490000000     0.024350000000    -0.228389   
O1       O      0.740530000000     0.344760000000     0.991070000000    -0.563481   
O2       O      0.655810000000     0.331720000000     0.977890000000    -0.561512   
O3       O      0.692790000000     0.380650000000     0.976910000000    -0.561673   
O4       O      0.703620000000     0.295820000000     0.992130000000    -0.562187   
O5       O      0.694750000000     0.303920000000     0.040870000000    -0.561543   
O6       O      0.683350000000     0.388590000000     0.025590000000    -0.564073   
O7       O      0.646660000000     0.339370000000     0.026640000000    -0.561896   
O8       O      0.731370000000     0.353320000000     0.039700000000    -0.560481   
O9       O      0.325320000000     0.338040000000     0.022290000000    -0.561322   
O10      O      0.410590000000     0.353140000000     0.015930000000    -0.563206   
O11      O      0.361210000000     0.387770000000     0.027440000000    -0.561054   
O12      O      0.374770000000     0.303640000000     0.010800000000    -0.56366    
O13      O      0.368030000000     0.312730000000     0.961890000000    -0.561583   
O14      O      0.356720000000     0.397230000000     0.978360000000    -0.56209    
O15      O      0.405260000000     0.361360000000     0.966720000000    -0.560799   
O16      O      0.319640000000     0.348560000000     0.973530000000    -0.56288    
O17      O      0.623940000000     0.716180000000     0.989000000000    -0.562974   
O18      O      0.639270000000     0.631770000000     0.976920000000    -0.56426    
O19      O      0.589990000000     0.665180000000     0.991600000000    -0.561546   
O20      O      0.673410000000     0.682620000000     0.974550000000    -0.561903   
O21      O      0.684540000000     0.677780000000     0.023260000000    -0.564434   
O22      O      0.601550000000     0.660030000000     0.040180000000    -0.563278   
O23      O      0.650770000000     0.626420000000     0.025500000000    -0.561205   
O24      O      0.635460000000     0.711260000000     0.037610000000    -0.561432   
O25      O      0.276580000000     0.679160000000     0.978800000000    -0.561519   
O26      O      0.361260000000     0.678790000000     0.997160000000    -0.563719   
O27      O      0.318430000000     0.635410000000     0.990010000000    -0.560727   
O28      O      0.319540000000     0.722320000000     0.986070000000    -0.561847   
O29      O      0.307790000000     0.724670000000     0.034830000000    -0.561325   
O30      O      0.307830000000     0.637950000000     0.039000000000    -0.562218   
O31      O      0.350260000000     0.681610000000     0.046060000000    -0.561188   
O32      O      0.265450000000     0.680770000000     0.027720000000    -0.563008   
O33      O      0.722930000000     0.006750000000     0.701050000000    -0.56011    
O34      O      0.637200000000     0.012690000000     0.688300000000    -0.561391   
O35      O      0.686610000000     0.010320000000     0.652580000000    -0.563662   
O36      O      0.673580000000     0.009120000000     0.736660000000    -0.562132   
O37      O      0.676980000000     0.060180000000     0.737930000000    -0.562062   
O38      O      0.689860000000     0.061400000000     0.653700000000    -0.560661   
O39      O      0.640650000000     0.063750000000     0.689580000000    -0.560974   
O40      O      0.726360000000     0.057820000000     0.701920000000    -0.561995   
O41      O      0.302240000000     0.041800000000     0.635940000000    -0.564061   
O42      O      0.385720000000     0.052850000000     0.656040000000    -0.5622     
O43      O      0.353970000000     0.050320000000     0.604420000000    -0.558842   
O44      O      0.334010000000     0.044050000000     0.687340000000    -0.559568   
O45      O      0.340660000000     0.993370000000     0.684980000000    -0.563046   
O46      O      0.361980000000     0.999800000000     0.602940000000    -0.564394   
O47      O      0.393010000000     0.002210000000     0.654660000000    -0.560261   
O48      O      0.309520000000     0.991220000000     0.632990000000    -0.558301   
O49      O      0.371270000000     0.059440000000     0.268650000000    -0.560362   
O50      O      0.371350000000     0.057370000000     0.353940000000    -0.559708   
O51      O      0.413960000000     0.066780000000     0.311520000000    -0.560108   
O52      O      0.328750000000     0.050070000000     0.311030000000    -0.561854   
O53      O      0.338660000000     0.999850000000     0.310250000000    -0.56183    
O54      O      0.423870000000     0.016580000000     0.310130000000    -0.563118   
O55      O      0.381450000000     0.007210000000     0.352550000000    -0.563073   
O56      O      0.381080000000     0.009210000000     0.267560000000    -0.561968   
O57      O      0.751260000000     0.053080000000     0.357320000000    -0.562512   
O58      O      0.665990000000     0.068390000000     0.352590000000    -0.561667   
O59      O      0.707570000000     0.068660000000     0.396930000000    -0.560942   
O60      O      0.709470000000     0.052700000000     0.313120000000    -0.561453   
O61      O      0.700990000000     0.003070000000     0.322170000000    -0.563529   
O62      O      0.697490000000     0.019250000000     0.405530000000    -0.563958   
O63      O      0.656500000000     0.018780000000     0.360680000000    -0.56144    
O64      O      0.741910000000     0.003720000000     0.366980000000    -0.559937   
O65      O      0.964690000000     0.675600000000     0.674290000000    -0.560351   
O66      O      0.974220000000     0.663350000000     0.590480000000    -0.561249   
O67      O      0.962490000000     0.626770000000     0.637590000000    -0.559683   
O68      O      0.976470000000     0.711940000000     0.627250000000    -0.560029   
O69      O      0.026510000000     0.704580000000     0.634580000000    -0.562677   
O70      O      0.012710000000     0.619260000000     0.643570000000    -0.56313    
O71      O      0.024460000000     0.656470000000     0.597040000000    -0.560623   
O72      O      0.014690000000     0.667280000000     0.680990000000    -0.562693   
O73      O      0.982620000000     0.289850000000     0.698040000000    -0.562778   
O74      O      0.966890000000     0.374430000000     0.686550000000    -0.561503   
O75      O      0.973960000000     0.326060000000     0.650160000000    -0.559089   
O76      O      0.975750000000     0.338290000000     0.734600000000    -0.559833   
O77      O      0.025840000000     0.348310000000     0.732010000000    -0.562928   
O78      O      0.024400000000     0.334280000000     0.648180000000    -0.564966   
O79      O      0.017130000000     0.383500000000     0.683500000000    -0.560852   
O80      O      0.032930000000     0.298950000000     0.696780000000    -0.558936   
O81      O      0.018240000000     0.655860000000     0.259850000000    -0.561488   
O82      O      0.025750000000     0.651080000000     0.344440000000    -0.562044   
O83      O      0.013690000000     0.610830000000     0.300630000000    -0.561858   
O84      O      0.030200000000     0.696190000000     0.303970000000    -0.559827   
O85      O      0.980120000000     0.705670000000     0.308270000000    -0.563359   
O86      O      0.963710000000     0.620470000000     0.305470000000    -0.561752   
O87      O      0.975800000000     0.660830000000     0.349380000000    -0.559826   
O88      O      0.968220000000     0.665390000000     0.264490000000    -0.560591   
O89      O      0.978580000000     0.327350000000     0.309750000000    -0.560557   
O90      O      0.963330000000     0.328620000000     0.393710000000    -0.561095   
O91      O      0.962530000000     0.370540000000     0.349630000000    -0.561837   
O92      O      0.979210000000     0.285450000000     0.353980000000    -0.563143   
O93      O      0.028770000000     0.295560000000     0.361440000000    -0.560036   
O94      O      0.011790000000     0.380840000000     0.358540000000    -0.562285   
O95      O      0.012850000000     0.338250000000     0.401980000000    -0.563022   
O96      O      0.027780000000     0.338250000000     0.318300000000    -0.563371   
O97      O      0.982250000000     0.322770000000     0.028450000000    -0.56214    
O98      O      0.068340000000     0.315540000000     0.019410000000    -0.559946   
O99      O      0.029690000000     0.317020000000     0.066160000000    -0.563055   
O100     O      0.020620000000     0.321200000000     0.981610000000    -0.562439   
O101     O      0.024410000000     0.372210000000     0.983630000000    -0.560316   
O102     O      0.035200000000     0.367890000000     0.068010000000    -0.560759   
O103     O      0.072670000000     0.366540000000     0.020310000000    -0.563857   
O104     O      0.986940000000     0.373660000000     0.031450000000    -0.561358   
O105     O      0.933460000000     0.653290000000     0.968910000000    -0.56212    
O106     O      0.020210000000     0.651930000000     0.964180000000    -0.563005   
O107     O      0.979420000000     0.651260000000     0.009010000000    -0.561447   
O108     O      0.974460000000     0.653840000000     0.924080000000    -0.562801   
O109     O      0.974150000000     0.705020000000     0.925560000000    -0.560249   
O110     O      0.981020000000     0.702410000000     0.010490000000    -0.561654   
O111     O      0.020910000000     0.703120000000     0.964470000000    -0.562261   
O112     O      0.934510000000     0.704410000000     0.971350000000    -0.562973   
O113     O      0.086120000000     0.990020000000     0.358120000000    -0.560827   
O114     O      0.000030000000     0.992420000000     0.368950000000    -0.560903   
O115     O      0.041330000000     0.948420000000     0.357450000000    -0.561599   
O116     O      0.044960000000     0.034360000000     0.369650000000    -0.561972   
O117     O      0.040150000000     0.041820000000     0.320270000000    -0.560789   
O118     O      0.033820000000     0.955990000000     0.308400000000    -0.562241   
O119     O      0.993850000000     0.001220000000     0.319930000000    -0.561484   
O120     O      0.079860000000     0.996800000000     0.308790000000    -0.562602   
O121     O      0.980060000000     0.005560000000     0.696570000000    -0.559982   
O122     O      0.064270000000     0.994770000000     0.678850000000    -0.563254   
O123     O      0.029390000000     0.042480000000     0.694680000000    -0.558749   
O124     O      0.015240000000     0.957840000000     0.680570000000    -0.559216   
O125     O      0.004870000000     0.968000000000     0.632480000000    -0.56373    
O126     O      0.020580000000     0.052280000000     0.646220000000    -0.56237    
O127     O      0.054800000000     0.003540000000     0.630330000000    -0.558854   
O128     O      0.970810000000     0.016460000000     0.648420000000    -0.560807   
O129     O      0.648460000000     0.004250000000     0.075870000000    -0.561677   
O130     O      0.643220000000     0.017840000000     0.991780000000    -0.560954   
O131     O      0.636700000000     0.969000000000     0.027820000000    -0.56314    
O132     O      0.654700000000     0.052890000000     0.039970000000    -0.563668   
O133     O      0.704630000000     0.043130000000     0.034840000000    -0.560689   
O134     O      0.686620000000     0.958680000000     0.023750000000    -0.561951   
O135     O      0.693030000000     0.007170000000     0.987350000000    -0.563263   
O136     O      0.698400000000     0.994330000000     0.071160000000    -0.563472   
O137     O      0.364920000000     0.003620000000     0.932760000000    -0.561108   
O138     O      0.376630000000     0.018980000000     0.015720000000    -0.561523   
O139     O      0.364000000000     0.969250000000     0.982630000000    -0.562526   
O140     O      0.377540000000     0.053430000000     0.965880000000    -0.562264   
O141     O      0.327360000000     0.062330000000     0.970120000000    -0.561295   
O142     O      0.314070000000     0.978590000000     0.988540000000    -0.560974   
O143     O      0.326720000000     0.028890000000     0.020800000000    -0.561435   
O144     O      0.314780000000     0.012230000000     0.937960000000    -0.561851   
V1       V      0.698550000000     0.337900000000     0.982550000000     1.4002     
V2       V      0.688670000000     0.346580000000     0.035160000000     1.39721    
V3       V      0.368180000000     0.345310000000     0.021090000000     1.39745    
V4       V      0.362210000000     0.355360000000     0.968160000000     1.39808    
V5       V      0.631200000000     0.674150000000     0.981070000000     1.40102    
V6       V      0.643530000000     0.668640000000     0.033590000000     1.3981     
V7       V      0.319380000000     0.678810000000     0.986040000000     1.39984    
V8       V      0.307400000000     0.681370000000     0.038860000000     1.39696    
V9       V      0.679950000000     0.007680000000     0.694590000000     1.39802    
V10      V      0.683610000000     0.062830000000     0.695840000000     1.39585    
V11      V      0.343700000000     0.049290000000     0.646000000000     1.3951     
V12      V      0.351560000000     0.994620000000     0.643830000000     1.39696    
V13      V      0.370950000000     0.060440000000     0.311320000000     1.39188    
V14      V      0.381650000000     0.006220000000     0.310040000000     1.40144    
V15      V      0.708960000000     0.062700000000     0.354650000000     1.39615    
V16      V      0.698840000000     0.009230000000     0.364200000000     1.39944    
V17      V      0.967450000000     0.669680000000     0.632140000000     1.39288    
V18      V      0.021600000000     0.661600000000     0.639290000000     1.39912    
V19      V      0.972790000000     0.331790000000     0.692450000000     1.39475    
V20      V      0.027090000000     0.341600000000     0.690030000000     1.39842    
V21      V      0.023960000000     0.653120000000     0.301990000000     1.39613    
V22      V      0.969950000000     0.663460000000     0.307100000000     1.39595    
V23      V      0.968930000000     0.327590000000     0.351420000000     1.39632    
V24      V      0.022260000000     0.338620000000     0.360440000000     1.39912    
V25      V      0.025070000000     0.317080000000     0.023800000000     1.3973     
V26      V      0.029990000000     0.372110000000     0.025900000000     1.3967     
V27      V      0.976840000000     0.650530000000     0.966500000000     1.3986     
V28      V      0.977710000000     0.705790000000     0.968050000000     1.39788    
V29      V      0.043330000000     0.991040000000     0.365530000000     1.39559    
V30      V      0.036620000000     0.999250000000     0.312380000000     1.39756    
V31      V      0.022580000000     0.999780000000     0.689620000000     1.39318    
V32      V      0.012410000000     0.010500000000     0.637430000000     1.39681    
V33      V      0.643770000000     0.011390000000     0.034020000000     1.39847    
V34      V      0.697680000000     0.000450000000     0.029080000000     1.39866    
V35      V      0.372770000000     0.010960000000     0.974040000000     1.39804    
V36      V      0.318730000000     0.020860000000     0.979580000000     1.39648    


