data_structure

_audit_creation_method RASPA-1.0
_audit_creation_date 2023-5-23
_audit_author_name 'Poobodin Mano'

_cell_length_a    43.6354
_cell_length_b    43.6335
_cell_length_c    29.1219
_cell_angle_alpha 90
_cell_angle_beta  90
_cell_angle_gamma 90
_cell_volume      55447.1

_symmetry_cell_setting          triclinic
_symmetry_space_group_name_Hall 'P 1'
_symmetry_space_group_name_H-M  'P 1'
_symmetry_Int_Tables_number     1

_symmetry_equiv_pos_as_xyz 'x,y,z'

loop_
_atom_site_label
_atom_site_type_symbol
_atom_site_fract_x
_atom_site_fract_y
_atom_site_fract_z
_atom_site_charge
C1       C      0.499000000000     0.835120000000     0.098920000000     0.476401   
C2       C      0.499680000000     0.835360000000     0.925470000000     0.476508   
C3       C      0.441390000000     0.836740000000     0.011720000000     0.475592   
C4       C      0.557130000000     0.833680000000     0.012320000000     0.476033   
C5       C      0.505800000000     0.835060000000     0.598940000000     0.47638    
C6       C      0.501540000000     0.835150000000     0.425610000000     0.476641   
C7       C      0.445980000000     0.835560000000     0.515750000000     0.477579   
C8       C      0.561500000000     0.834580000000     0.508770000000     0.477412   
C9       C      0.834130000000     0.499820000000     0.910110000000     0.476972   
C10      C      0.833930000000     0.500290000000     0.083490000000     0.477561   
C11      C      0.835180000000     0.442230000000     0.997340000000     0.476891   
C12      C      0.832860000000     0.557880000000     0.996580000000     0.477183   
C13      C      0.834100000000     0.499750000000     0.410000000000     0.477415   
C14      C      0.834350000000     0.499550000000     0.583390000000     0.476748   
C15      C      0.834620000000     0.441830000000     0.496320000000     0.47737    
C16      C      0.833910000000     0.557450000000     0.496600000000     0.477427   
C17      C      0.501570000000     0.167300000000     0.924890000000     0.475683   
C18      C      0.510480000000     0.175300000000     0.097820000000     0.475402   
C19      C      0.448340000000     0.172960000000     0.018050000000     0.47639    
C20      C      0.563860000000     0.169640000000     0.004130000000     0.476227   
C21      C      0.499640000000     0.167210000000     0.597990000000     0.475746   
C22      C      0.504940000000     0.175240000000     0.424730000000     0.475328   
C23      C      0.560070000000     0.169890000000     0.515020000000     0.477893   
C24      C      0.444380000000     0.172430000000     0.507580000000     0.477813   
C25      C      0.170180000000     0.510420000000     0.089910000000     0.475227   
C26      C      0.168660000000     0.499520000000     0.916790000000     0.475316   
C27      C      0.171630000000     0.447370000000     0.011600000000     0.476815   
C28      C      0.167250000000     0.562680000000     0.994850000000     0.476335   
C29      C      0.168380000000     0.507710000000     0.416830000000     0.475105   
C30      C      0.170060000000     0.496660000000     0.589930000000     0.475162   
C31      C      0.171070000000     0.559800000000     0.511970000000     0.476501   
C32      C      0.167320000000     0.444470000000     0.494930000000     0.476323   
C33      C      0.890210000000     0.832760000000     0.978960000000     0.47619    
C34      C      0.774540000000     0.833980000000     0.990760000000     0.477235   
C35      C      0.831680000000     0.775510000000     0.989300000000     0.478212   
C36      C      0.833020000000     0.891170000000     0.980220000000     0.477433   
C37      C      0.894710000000     0.832840000000     0.508790000000     0.477599   
C38      C      0.778990000000     0.832490000000     0.502110000000     0.478506   
C39      C      0.836620000000     0.890690000000     0.508780000000     0.47774    
C40      C      0.836730000000     0.774980000000     0.501990000000     0.478699   
C41      C      0.840360000000     0.109070000000     0.980670000000     0.476234   
C42      C      0.837510000000     0.224580000000     0.990360000000     0.476973   
C43      C      0.781030000000     0.165060000000     0.982030000000     0.475779   
C44      C      0.896760000000     0.168360000000     0.989190000000     0.474756   
C45      C      0.834870000000     0.108690000000     0.506090000000     0.476722   
C46      C      0.836140000000     0.224220000000     0.497000000000     0.477682   
C47      C      0.893140000000     0.165670000000     0.495710000000     0.476173   
C48      C      0.777680000000     0.167110000000     0.507540000000     0.477098   
C49      C      0.172690000000     0.113900000000     0.005550000000     0.475748   
C50      C      0.173050000000     0.229670000000     0.015640000000     0.476743   
C51      C      0.114840000000     0.172020000000     0.005030000000     0.475624   
C52      C      0.230560000000     0.171920000000     0.016180000000     0.476656   
C53      C      0.171020000000     0.111240000000     0.498320000000     0.474771   
C54      C      0.166540000000     0.226790000000     0.487250000000     0.475736   
C55      C      0.226720000000     0.171260000000     0.496210000000     0.476625   
C56      C      0.111150000000     0.166720000000     0.489600000000     0.476051   
C57      C      0.108350000000     0.839480000000     0.979150000000     0.475142   
C58      C      0.223870000000     0.836520000000     0.991350000000     0.475694   
C59      C      0.164400000000     0.780180000000     0.980630000000     0.475651   
C60      C      0.167640000000     0.895840000000     0.989630000000     0.474566   
C61      C      0.112730000000     0.834330000000     0.517040000000     0.477427   
C62      C      0.228470000000     0.835750000000     0.522540000000     0.478635   
C63      C      0.170000000000     0.893140000000     0.515240000000     0.475739   
C64      C      0.171780000000     0.777340000000     0.524180000000     0.4769     
C65      C      0.170000000000     0.944430000000     0.553110000000    -0.0162146  
C66      C      0.171520000000     0.059900000000     0.460920000000    -0.0162194  
C67      C      0.172230000000     0.062840000000     0.544250000000    -0.0163837  
C68      C      0.171740000000     0.030390000000     0.528800000000     0.0106298  
C69      C      0.171490000000     0.028760000000     0.481270000000     0.0106721  
C70      C      0.171050000000     0.000560000000     0.458210000000    -0.0654266  
C71      C      0.170350000000     0.941650000000     0.469750000000    -0.0164354  
C72      C      0.171260000000     0.003840000000     0.555950000000    -0.065304   
C73      C      0.170740000000     0.974030000000     0.485330000000     0.0108096  
C74      C      0.170690000000     0.975630000000     0.532860000000     0.0104958  
C75      C      0.171280000000     0.062670000000     0.043280000000    -0.016108   
C76      C      0.169570000000     0.947030000000     0.951650000000    -0.0162495  
C77      C      0.168720000000     0.944400000000     0.035010000000    -0.0164211  
C78      C      0.169790000000     0.976750000000     0.019310000000     0.0107625  
C79      C      0.170440000000     0.978240000000     0.971780000000     0.0105474  
C80      C      0.171670000000     0.006390000000     0.948580000000    -0.0653611  
C81      C      0.173240000000     0.065370000000     0.959970000000    -0.0163984  
C82      C      0.170020000000     0.003340000000     0.046310000000    -0.0654244  
C83      C      0.172070000000     0.032980000000     0.975600000000     0.010738   
C84      C      0.171120000000     0.031480000000     0.023120000000     0.0105945  
C85      C      0.061120000000     0.166290000000     0.447050000000    -0.0162753  
C86      C      0.943860000000     0.163930000000     0.533890000000    -0.0158937  
C87      C      0.942080000000     0.166150000000     0.450530000000    -0.0161167  
C88      C      0.974360000000     0.165460000000     0.467010000000     0.00992925 
C89      C      0.975140000000     0.164200000000     0.514550000000     0.011334   
C90      C      0.002750000000     0.163600000000     0.538800000000    -0.0662014  
C91      C      0.061450000000     0.164190000000     0.530460000000    -0.0158383  
C92      C      0.001490000000     0.166170000000     0.441000000000    -0.0647382  
C93      C      0.029710000000     0.164270000000     0.512940000000     0.0113234  
C94      C      0.029270000000     0.165510000000     0.465390000000     0.0100433  
C95      C      0.066370000000     0.172650000000     0.959190000000    -0.0163473  
C96      C      0.945370000000     0.169570000000     0.034220000000    -0.016311   
C97      C      0.947910000000     0.169820000000     0.950840000000    -0.0163042  
C98      C      0.979170000000     0.170610000000     0.970910000000     0.0104009  
C99      C      0.977690000000     0.170290000000     0.018450000000     0.0108221  
C100     C      0.004270000000     0.170460000000     0.045450000000    -0.0654915  
C101     C      0.063560000000     0.171170000000     0.042510000000    -0.0161527  
C102     C      0.007340000000     0.171460000000     0.947710000000    -0.0651978  
C103     C      0.032400000000     0.171160000000     0.022270000000     0.0107681  
C104     C      0.033940000000     0.171820000000     0.974740000000     0.0105412  
C105     C      0.062200000000     0.834150000000     0.556770000000    -0.0159752  
C106     C      0.945280000000     0.832880000000     0.469310000000    -0.0157247  
C107     C      0.943860000000     0.832760000000     0.552760000000    -0.0161837  
C108     C      0.975970000000     0.832950000000     0.535950000000     0.0108399  
C109     C      0.976740000000     0.832830000000     0.488370000000     0.0104643  
C110     C      0.004490000000     0.832770000000     0.464140000000    -0.0653986  
C111     C      0.063550000000     0.832990000000     0.473330000000    -0.0160206  
C112     C      0.002960000000     0.833380000000     0.562000000000    -0.0654472  
C113     C      0.031470000000     0.833000000000     0.490190000000     0.010727   
C114     C      0.030710000000     0.833480000000     0.537770000000     0.0106998  
C115     C      0.837230000000     0.940650000000     0.468340000000    -0.0157617  
C116     C      0.833940000000     0.059400000000     0.550250000000    -0.0160885  
C117     C      0.835640000000     0.058310000000     0.466830000000    -0.0157815  
C118     C      0.835580000000     0.026870000000     0.485590000000     0.0112278  
C119     C      0.834560000000     0.027270000000     0.533170000000     0.0102229  
C120     C      0.834310000000     0.999970000000     0.558710000000    -0.0649608  
C121     C      0.835140000000     0.940450000000     0.551770000000    -0.0161591  
C122     C      0.836520000000     0.999440000000     0.460880000000    -0.0661636  
C123     C      0.835190000000     0.972390000000     0.533870000000     0.0102345  
C124     C      0.836320000000     0.972280000000     0.486300000000     0.0111879  
C125     C      0.058960000000     0.837850000000     0.934640000000    -0.0166384  
C126     C      0.940540000000     0.834930000000     0.017980000000    -0.0158786  
C127     C      0.939720000000     0.832240000000     0.934630000000    -0.0165164  
C128     C      0.971840000000     0.834310000000     0.951910000000     0.00989374 
C129     C      0.971990000000     0.835860000000     0.999440000000     0.0113697  
C130     C      0.999210000000     0.838110000000     0.024450000000    -0.0663859  
C131     C      0.057910000000     0.840670000000     0.017970000000    -0.0159973  
C132     C      0.999360000000     0.834860000000     0.926710000000    -0.0646418  
C133     C      0.026500000000     0.838700000000     0.999430000000     0.0114655  
C134     C      0.026790000000     0.837100000000     0.951900000000     0.00995892 
C135     C      0.842090000000     0.058740000000     0.019940000000    -0.0158461  
C136     C      0.832720000000     0.940750000000     0.936510000000    -0.0162611  
C137     C      0.836410000000     0.941290000000     0.019800000000    -0.0157619  
C138     C      0.837260000000     0.972800000000     0.001420000000     0.0112865  
C139     C      0.835170000000     0.972740000000     0.953930000000     0.0101267  
C140     C      0.835460000000     0.000230000000     0.928790000000    -0.0648192  
C141     C      0.838490000000     0.059680000000     0.936650000000    -0.0163695  
C142     C      0.839750000000     0.999980000000     0.026470000000    -0.0662769  
C143     C      0.837990000000     0.027590000000     0.953980000000     0.0101498  
C144     C      0.840070000000     0.027300000000     0.001480000000     0.0113164  
C145     C      0.149820000000     0.608950000000     0.542220000000    -0.0170506  
C146     C      0.191480000000     0.728040000000     0.493630000000    -0.0169126  
C147     C      0.156560000000     0.727190000000     0.558670000000    -0.017223   
C148     C      0.163440000000     0.695510000000     0.542740000000     0.0113011  
C149     C      0.185130000000     0.696110000000     0.507990000000     0.0116426  
C150     C      0.197810000000     0.669110000000     0.490230000000    -0.0660157  
C151     C      0.195690000000     0.609850000000     0.494860000000    -0.0168588  
C152     C      0.149920000000     0.667840000000     0.556750000000    -0.0654186  
C153     C      0.185970000000     0.641420000000     0.506830000000     0.0115907  
C154     C      0.161210000000     0.640840000000     0.536630000000     0.0111325  
C155     C      0.189160000000     0.394990000000     0.466800000000    -0.0170025  
C156     C      0.145820000000     0.276400000000     0.515380000000    -0.0172415  
C157     C      0.182790000000     0.276610000000     0.452930000000    -0.0170791  
C158     C      0.175500000000     0.308440000000     0.467690000000     0.0109402  
C159     C      0.152780000000     0.308200000000     0.500940000000     0.0117126  
C160     C      0.139680000000     0.335410000000     0.517290000000    -0.0660904  
C161     C      0.142120000000     0.394620000000     0.511550000000    -0.016968   
C162     C      0.189430000000     0.335950000000     0.453890000000    -0.0653981  
C163     C      0.152080000000     0.362920000000     0.500880000000     0.0116062  
C164     C      0.177630000000     0.363170000000     0.472600000000     0.010976   
C165     C      0.188980000000     0.612030000000     0.966140000000    -0.0169962  
C166     C      0.143580000000     0.730760000000     0.009240000000    -0.017227   
C167     C      0.181480000000     0.730090000000     0.948050000000    -0.017135   
C168     C      0.174280000000     0.698390000000     0.963560000000     0.0109458  
C169     C      0.151090000000     0.698850000000     0.996070000000     0.011703   
C170     C      0.138140000000     0.671750000000     0.013050000000    -0.0660746  
C171     C      0.141440000000     0.612510000000     0.009690000000    -0.0168603  
C172     C      0.188720000000     0.670850000000     0.951150000000    -0.0653667  
C173     C      0.151100000000     0.644150000000     0.998040000000     0.0115802  
C174     C      0.176990000000     0.643780000000     0.970470000000     0.0109316  
C175     C      0.196470000000     0.397700000000     0.993040000000    -0.01682    
C176     C      0.157010000000     0.279220000000     0.051170000000    -0.0170285  
C177     C      0.192120000000     0.279570000000     0.986340000000    -0.0168443  
C178     C      0.185670000000     0.311230000000     0.001950000000     0.0115857  
C179     C      0.163890000000     0.311170000000     0.036590000000     0.0112415  
C180     C      0.150410000000     0.338560000000     0.051830000000    -0.0654257  
C181     C      0.150490000000     0.397710000000     0.040180000000    -0.017001   
C182     C      0.198460000000     0.338570000000     0.985550000000    -0.065986   
C183     C      0.161800000000     0.365930000000     0.033070000000     0.0111554  
C184     C      0.186630000000     0.365920000000     0.003400000000     0.0115659  
C185     C      0.142260000000     0.493490000000     0.664360000000    -0.0160482  
C186     C      0.196520000000     0.496020000000     0.842430000000    -0.0160009  
C187     C      0.140830000000     0.495220000000     0.841850000000    -0.0167135  
C188     C      0.153160000000     0.494030000000     0.794270000000     0.0107756  
C189     C      0.184920000000     0.494380000000     0.794690000000     0.0102809  
C190     C      0.202050000000     0.494040000000     0.753920000000    -0.0654592  
C191     C      0.197950000000     0.493600000000     0.664950000000    -0.0167023  
C192     C      0.136750000000     0.493500000000     0.752910000000    -0.0654446  
C193     C      0.185630000000     0.493290000000     0.712570000000     0.0107468  
C194     C      0.153880000000     0.493120000000     0.712140000000     0.0103025  
C195     C      0.142260000000     0.513360000000     0.164270000000    -0.0160396  
C196     C      0.196270000000     0.511350000000     0.342530000000    -0.0161031  
C197     C      0.140580000000     0.511790000000     0.341800000000    -0.0167155  
C198     C      0.152970000000     0.512990000000     0.294240000000     0.010751   
C199     C      0.184730000000     0.512840000000     0.294760000000     0.0103345  
C200     C      0.201910000000     0.513250000000     0.254040000000    -0.0654932  
C201     C      0.197950000000     0.513590000000     0.165040000000    -0.0167657  
C202     C      0.136610000000     0.513380000000     0.252820000000    -0.0654499  
C203     C      0.185560000000     0.513840000000     0.212620000000     0.0107914  
C204     C      0.153800000000     0.513820000000     0.212100000000     0.0102817  
C205     C      0.395190000000     0.150140000000     0.480440000000    -0.0167885  
C206     C      0.275550000000     0.189800000000     0.531140000000    -0.0167378  
C207     C      0.277360000000     0.154390000000     0.466720000000    -0.0167174  
C208     C      0.308680000000     0.161530000000     0.483160000000     0.0115898  
C209     C      0.307750000000     0.183370000000     0.517700000000     0.0108961  
C210     C      0.334700000000     0.196670000000     0.534870000000    -0.0654731  
C211     C      0.394120000000     0.195820000000     0.528240000000    -0.01653    
C212     C      0.336410000000     0.148690000000     0.468470000000    -0.0660642  
C213     C      0.362520000000     0.185260000000     0.517800000000     0.0109046  
C214     C      0.363260000000     0.160540000000     0.487910000000     0.0116994  
C215     C      0.609210000000     0.145640000000     0.492310000000    -0.0165703  
C216     C      0.728980000000     0.184690000000     0.543890000000    -0.0167442  
C217     C      0.727040000000     0.149020000000     0.479800000000    -0.0167199  
C218     C      0.695780000000     0.156090000000     0.496460000000     0.0116284  
C219     C      0.696730000000     0.178080000000     0.530780000000     0.0109428  
C220     C      0.669810000000     0.191700000000     0.547460000000    -0.06542    
C221     C      0.610430000000     0.191560000000     0.539590000000    -0.0166782  
C222     C      0.668030000000     0.143410000000     0.481590000000    -0.0660368  
C223     C      0.641980000000     0.180370000000     0.530280000000     0.0109834  
C224     C      0.641190000000     0.155510000000     0.500680000000     0.0116025  
C225     C      0.398580000000     0.196610000000     0.996700000000    -0.0168296  
C226     C      0.279910000000     0.156760000000     0.053270000000    -0.0170263  
C227     C      0.280640000000     0.190440000000     0.986760000000    -0.0167345  
C228     C      0.312170000000     0.184730000000     0.003530000000     0.0115325  
C229     C      0.311950000000     0.163740000000     0.039250000000     0.0111785  
C230     C      0.339310000000     0.151060000000     0.056070000000    -0.0654351  
C231     C      0.398600000000     0.151830000000     0.046370000000    -0.0170251  
C232     C      0.339550000000     0.197540000000     0.987310000000    -0.0659592  
C233     C      0.366770000000     0.162430000000     0.037580000000     0.0111272  
C234     C      0.366810000000     0.186530000000     0.006580000000     0.0115727  
C235     C      0.613900000000     0.144300000000     0.019340000000    -0.016844   
C236     C      0.730540000000     0.181820000000     0.950390000000    -0.0171133  
C237     C      0.731990000000     0.144700000000     0.012590000000    -0.0171713  
C238     C      0.699940000000     0.152480000000     0.000770000000     0.0117743  
C239     C      0.699070000000     0.175230000000     0.967570000000     0.0108134  
C240     C      0.671430000000     0.189850000000     0.956070000000    -0.0652656  
C241     C      0.612940000000     0.191020000000     0.973870000000    -0.0168853  
C242     C      0.673090000000     0.140220000000     0.019640000000    -0.0661259  
C243     C      0.644670000000     0.178780000000     0.977170000000     0.0107694  
C244     C      0.645350000000     0.153370000000     0.005690000000     0.011673   
C245     C      0.498720000000     0.193210000000     0.849450000000    -0.0159933  
C246     C      0.497810000000     0.137460000000     0.672030000000    -0.0165841  
C247     C      0.498000000000     0.193150000000     0.673480000000    -0.0160018  
C248     C      0.497530000000     0.180760000000     0.720600000000     0.0113545  
C249     C      0.497460000000     0.149000000000     0.720270000000     0.00981265 
C250     C      0.497610000000     0.132170000000     0.761520000000    -0.064546   
C251     C      0.498500000000     0.137530000000     0.850980000000    -0.0165535  
C252     C      0.497760000000     0.197480000000     0.761470000000    -0.0664588  
C253     C      0.497750000000     0.149030000000     0.802740000000     0.00979437 
C254     C      0.497830000000     0.180780000000     0.802360000000     0.0113428  
C255     C      0.512390000000     0.149370000000     0.173330000000    -0.0160495  
C256     C      0.507770000000     0.205010000000     0.350750000000    -0.0165644  
C257     C      0.507610000000     0.149330000000     0.349250000000    -0.0160168  
C258     C      0.509430000000     0.161750000000     0.302190000000     0.0112894  
C259     C      0.509450000000     0.193510000000     0.302550000000     0.00972038 
C260     C      0.510510000000     0.210350000000     0.261340000000    -0.0644949  
C261     C      0.512250000000     0.205050000000     0.171870000000    -0.0166703  
C262     C      0.510580000000     0.145050000000     0.261320000000    -0.0664345  
C263     C      0.511690000000     0.193520000000     0.220130000000     0.00975237 
C264     C      0.511770000000     0.161770000000     0.220470000000     0.0112886  
C265     C      0.858260000000     0.392290000000     0.519100000000    -0.0166262  
C266     C      0.819230000000     0.273580000000     0.462150000000    -0.016685   
C267     C      0.855060000000     0.274230000000     0.526110000000    -0.0166277  
C268     C      0.848000000000     0.305810000000     0.510860000000     0.0115248  
C269     C      0.825960000000     0.305530000000     0.476580000000     0.0110228  
C270     C      0.812310000000     0.332750000000     0.461150000000    -0.0656052  
C271     C      0.812410000000     0.391890000000     0.471610000000    -0.0166651  
C272     C      0.860630000000     0.333250000000     0.527050000000    -0.0660689  
C273     C      0.823620000000     0.360220000000     0.479600000000     0.0110198  
C274     C      0.848460000000     0.360450000000     0.509270000000     0.0115494  
C275     C      0.811830000000     0.607140000000     0.522100000000    -0.016657   
C276     C      0.851520000000     0.725600000000     0.465220000000    -0.016682   
C277     C      0.819270000000     0.725030000000     0.533340000000    -0.0164007  
C278     C      0.824500000000     0.693480000000     0.516280000000     0.0112978  
C279     C      0.844720000000     0.693680000000     0.479560000000     0.0114729  
C280     C      0.856770000000     0.666370000000     0.461780000000    -0.0657543  
C281     C      0.855610000000     0.607190000000     0.470410000000    -0.0167637  
C282     C      0.811750000000     0.666130000000     0.532720000000    -0.0658041  
C283     C      0.845580000000     0.638960000000     0.480460000000     0.0114005  
C284     C      0.822120000000     0.638900000000     0.512570000000     0.0114219  
C285     C      0.858970000000     0.393040000000     0.973310000000    -0.0167135  
C286     C      0.820190000000     0.273450000000     0.026530000000    -0.0167815  
C287     C      0.855140000000     0.275110000000     0.961520000000    -0.0167678  
C288     C      0.848380000000     0.306440000000     0.978190000000     0.011533   
C289     C      0.826780000000     0.305630000000     0.013080000000     0.0110192  
C290     C      0.813440000000     0.332620000000     0.029970000000    -0.0655894  
C291     C      0.813600000000     0.391930000000     0.021780000000    -0.0166543  
C292     C      0.860970000000     0.334130000000     0.962840000000    -0.0660224  
C293     C      0.824640000000     0.360370000000     0.012350000000     0.0110085  
C294     C      0.849160000000     0.361050000000     0.982100000000     0.0115534  
C295     C      0.809700000000     0.607080000000     0.971030000000    -0.0166242  
C296     C      0.847380000000     0.726530000000     0.026370000000    -0.016597   
C297     C      0.814270000000     0.725110000000     0.959230000000    -0.0166054  
C298     C      0.820460000000     0.693700000000     0.976220000000     0.0113873  
C299     C      0.841120000000     0.694420000000     0.012370000000     0.0113086  
C300     C      0.853990000000     0.667420000000     0.029940000000    -0.0656556  
C301     C      0.853980000000     0.608170000000     0.021700000000    -0.0168101  
C302     C      0.808160000000     0.666040000000     0.960200000000    -0.0658192  
C303     C      0.843200000000     0.639710000000     0.011670000000     0.0113237  
C304     C      0.819400000000     0.639070000000     0.980140000000     0.0113659  
C305     C      0.862070000000     0.502500000000     0.658120000000    -0.0159872  
C306     C      0.806540000000     0.496600000000     0.835330000000    -0.0159456  
C307     C      0.861920000000     0.502730000000     0.835450000000    -0.0161167  
C308     C      0.850070000000     0.501340000000     0.787780000000     0.010592   
C309     C      0.818490000000     0.497870000000     0.787730000000     0.0105391  
C310     C      0.801840000000     0.496030000000     0.746700000000    -0.0656578  
C311     C      0.806670000000     0.496540000000     0.658080000000    -0.0160231  
C312     C      0.866790000000     0.503120000000     0.746800000000    -0.0656105  
C313     C      0.818550000000     0.497830000000     0.705720000000     0.0105672  
C314     C      0.850140000000     0.501250000000     0.705750000000     0.0105304  
C315     C      0.806140000000     0.502600000000     0.158170000000    -0.0158856  
C316     C      0.861780000000     0.497610000000     0.335270000000    -0.0159292  
C317     C      0.806250000000     0.502250000000     0.335400000000    -0.015937   
C318     C      0.818140000000     0.501390000000     0.287770000000     0.0106155  
C319     C      0.849810000000     0.498770000000     0.287700000000     0.0106623  
C320     C      0.866510000000     0.497520000000     0.246690000000    -0.0656497  
C321     C      0.861690000000     0.498150000000     0.158130000000    -0.015972   
C322     C      0.801390000000     0.502860000000     0.246800000000    -0.065584   
C323     C      0.849760000000     0.499020000000     0.205740000000     0.0106732  
C324     C      0.818090000000     0.501590000000     0.205780000000     0.0105963  
C325     C      0.395850000000     0.813250000000     0.493360000000    -0.0166213  
C326     C      0.278430000000     0.851240000000     0.557260000000    -0.0166678  
C327     C      0.277910000000     0.818080000000     0.490140000000    -0.0164203  
C328     C      0.309710000000     0.824190000000     0.505100000000     0.0116552  
C329     C      0.310140000000     0.844880000000     0.541210000000     0.0111069  
C330     C      0.337730000000     0.857760000000     0.556740000000    -0.0654062  
C331     C      0.396730000000     0.857570000000     0.543980000000    -0.0167119  
C332     C      0.336760000000     0.811860000000     0.487070000000    -0.066201   
C333     C      0.364800000000     0.846910000000     0.536430000000     0.0110405  
C334     C      0.364320000000     0.823080000000     0.504940000000     0.0117123  
C335     C      0.611330000000     0.811480000000     0.531020000000    -0.0167624  
C336     C      0.729220000000     0.847950000000     0.466960000000    -0.0166345  
C337     C      0.729380000000     0.814830000000     0.534130000000    -0.0165999  
C338     C      0.697630000000     0.821270000000     0.519150000000     0.0117269  
C339     C      0.697450000000     0.841950000000     0.483010000000     0.0110899  
C340     C      0.670020000000     0.855180000000     0.467510000000    -0.0654017  
C341     C      0.611040000000     0.855810000000     0.480380000000    -0.0167713  
C342     C      0.670430000000     0.809300000000     0.537220000000    -0.066185   
C343     C      0.642810000000     0.844690000000     0.487860000000     0.0110412  
C344     C      0.643000000000     0.820870000000     0.519360000000     0.0117598  
C345     C      0.390630000000     0.814980000000     0.033760000000    -0.0169555  
C346     C      0.275040000000     0.854120000000     0.964550000000    -0.0170528  
C347     C      0.272070000000     0.819180000000     0.029440000000    -0.0168459  
C348     C      0.304500000000     0.826310000000     0.018160000000     0.0110214  
C349     C      0.306020000000     0.847890000000     0.983310000000     0.0113887  
C350     C      0.333970000000     0.861070000000     0.970120000000    -0.0657543  
C351     C      0.392570000000     0.860300000000     0.985280000000    -0.0169432  
C352     C      0.331150000000     0.813590000000     0.037200000000    -0.0656622  
C353     C      0.360470000000     0.849850000000     0.991500000000     0.0113832  
C354     C      0.359240000000     0.825360000000     0.021750000000     0.011115   
C355     C      0.723280000000     0.817590000000     0.962520000000    -0.0167164  
C356     C      0.607990000000     0.854790000000     0.035310000000    -0.0171038  
C357     C      0.605790000000     0.810860000000     0.984040000000    -0.0169668  
C358     C      0.637920000000     0.821170000000     0.990450000000     0.0113316  
C359     C      0.639310000000     0.844730000000     0.022300000000     0.0113959  
C360     C      0.667480000000     0.855870000000     0.038410000000    -0.0657433  
C361     C      0.726470000000     0.850140000000     0.030120000000    -0.0168574  
C362     C      0.664310000000     0.810590000000     0.968020000000    -0.0657063  
C363     C      0.694020000000     0.843670000000     0.018310000000     0.0113962  
C364     C      0.692340000000     0.823300000000     0.981870000000     0.0112632  
C365     C      0.497810000000     0.807670000000     0.850670000000    -0.0161157  
C366     C      0.509170000000     0.862720000000     0.673700000000    -0.0161763  
C367     C      0.503020000000     0.807340000000     0.673610000000    -0.016032   
C368     C      0.503260000000     0.819310000000     0.721220000000     0.0105889  
C369     C      0.506800000000     0.850880000000     0.721300000000     0.0106389  
C370     C      0.507420000000     0.867650000000     0.762330000000    -0.0655823  
C371     C      0.504200000000     0.863030000000     0.850890000000    -0.0161064  
C372     C      0.500080000000     0.802720000000     0.762130000000    -0.0656943  
C373     C      0.504300000000     0.851050000000     0.803260000000     0.0106079  
C374     C      0.500690000000     0.819480000000     0.803150000000     0.0106228  
C375     C      0.497820000000     0.862890000000     0.350970000000    -0.0160048  
C376     C      0.500990000000     0.807300000000     0.173620000000    -0.0160064  
C377     C      0.496780000000     0.862860000000     0.173660000000    -0.0160508  
C378     C      0.497780000000     0.850920000000     0.221290000000     0.0105205  
C379     C      0.500210000000     0.819240000000     0.221260000000     0.0106305  
C380     C      0.501810000000     0.802520000000     0.262260000000    -0.0656757  
C381     C      0.502280000000     0.807350000000     0.350890000000    -0.0160352  
C382     C      0.496730000000     0.867660000000     0.262310000000    -0.0655855  
C383     C      0.500770000000     0.819270000000     0.303280000000     0.0106185  
C384     C      0.498260000000     0.850940000000     0.303320000000     0.0104866  
H1       H      0.193270000000     0.067910000000     0.564370000000     0.0394859  
H2       H      0.192130000000     0.063590000000     0.439190000000     0.0387682  
H3       H      0.170920000000     0.999330000000     0.421080000000     0.0411547  
H4       H      0.171280000000     0.005080000000     0.593070000000     0.0412305  
H5       H      0.190450000000     0.940240000000     0.574970000000     0.0390851  
H6       H      0.149660000000     0.936700000000     0.448770000000     0.0391493  
H7       H      0.151880000000     0.068300000000     0.565690000000     0.039092   
H8       H      0.150740000000     0.063750000000     0.439620000000     0.0402136  
H9       H      0.191050000000     0.936140000000     0.449120000000     0.0396437  
H10      H      0.149060000000     0.940980000000     0.574220000000     0.039683   
H11      H      0.147720000000     0.939810000000     0.055470000000     0.0390222  
H12      H      0.148940000000     0.943870000000     0.929780000000     0.040035   
H13      H      0.172230000000     0.007530000000     0.911460000000     0.0412578  
H14      H      0.169340000000     0.002200000000     0.083430000000     0.041162   
H15      H      0.150210000000     0.066910000000     0.063760000000     0.0398568  
H16      H      0.194590000000     0.070060000000     0.940410000000     0.0394562  
H17      H      0.189100000000     0.938610000000     0.056190000000     0.0396768  
H18      H      0.190310000000     0.942470000000     0.930560000000     0.0388687  
H19      H      0.153230000000     0.071070000000     0.937950000000     0.0392204  
H20      H      0.191580000000     0.066120000000     0.065760000000     0.0389378  
H21      H      0.936910000000     0.146020000000     0.428470000000     0.038864   
H22      H      0.939630000000     0.142670000000     0.553960000000     0.0399634  
H23      H      0.003240000000     0.162740000000     0.575940000000     0.0411448  
H24      H      0.001000000000     0.167260000000     0.403880000000     0.0412825  
H25      H      0.065820000000     0.146100000000     0.424900000000     0.0388649  
H26      H      0.065770000000     0.184320000000     0.552950000000     0.0394551  
H27      H      0.937250000000     0.187400000000     0.430770000000     0.0393365  
H28      H      0.939980000000     0.184050000000     0.556580000000     0.0391823  
H29      H      0.066310000000     0.142940000000     0.550240000000     0.0398866  
H30      H      0.065340000000     0.187480000000     0.426850000000     0.0392754  
H31      H      0.944580000000     0.149070000000     0.929290000000     0.0399939  
H32      H      0.940660000000     0.148760000000     0.055070000000     0.0390655  
H33      H      0.003110000000     0.170010000000     0.082580000000     0.0412446  
H34      H      0.008490000000     0.171780000000     0.910580000000     0.0411454  
H35      H      0.071940000000     0.152470000000     0.937440000000     0.0390996  
H36      H      0.067140000000     0.191550000000     0.064770000000     0.0390535  
H37      H      0.943470000000     0.190450000000     0.929480000000     0.0387109  
H38      H      0.939770000000     0.190160000000     0.055060000000     0.0397683  
H39      H      0.067580000000     0.150170000000     0.063250000000     0.0399459  
H40      H      0.071260000000     0.193850000000     0.939370000000     0.0393507  
H41      H      0.938870000000     0.853360000000     0.573910000000     0.0391686  
H42      H      0.941130000000     0.853620000000     0.448050000000     0.0397411  
H43      H      0.005040000000     0.832590000000     0.426980000000     0.0410793  
H44      H      0.002400000000     0.833660000000     0.599160000000     0.0413606  
H45      H      0.066120000000     0.855210000000     0.577430000000     0.0399435  
H46      H      0.068580000000     0.811980000000     0.453110000000     0.0393827  
H47      H      0.939070000000     0.811950000000     0.573570000000     0.0395121  
H48      H      0.941100000000     0.812210000000     0.447880000000     0.0389089  
H49      H      0.068260000000     0.853380000000     0.451560000000     0.0390418  
H50      H      0.066670000000     0.813810000000     0.578750000000     0.0390583  
H51      H      0.815280000000     0.062350000000     0.444690000000     0.0390665  
H52      H      0.812750000000     0.064060000000     0.570230000000     0.039297   
H53      H      0.833490000000     0.000170000000     0.595860000000     0.0414477  
H54      H      0.837390000000     0.999240000000     0.423730000000     0.0409933  
H55      H      0.817160000000     0.935910000000     0.445930000000     0.0392036  
H56      H      0.855360000000     0.936110000000     0.574030000000     0.0390886  
H57      H      0.856680000000     0.062720000000     0.446340000000     0.0399542  
H58      H      0.854140000000     0.064380000000     0.572270000000     0.0391032  
H59      H      0.813980000000     0.935600000000     0.571730000000     0.039307   
H60      H      0.858540000000     0.936480000000     0.448380000000     0.0397605  
H61      H      0.935920000000     0.810610000000     0.915330000000     0.0389686  
H62      H      0.937200000000     0.814630000000     0.040510000000     0.0391769  
H63      H      0.999150000000     0.839300000000     0.061580000000     0.0410039  
H64      H      0.999420000000     0.833600000000     0.889590000000     0.0413509  
H65      H      0.064580000000     0.816790000000     0.914900000000     0.039417   
H66      H      0.061330000000     0.862360000000     0.037320000000     0.0398149  
H67      H      0.934040000000     0.851910000000     0.911930000000     0.0391692  
H68      H      0.935330000000     0.855970000000     0.038060000000     0.0400052  
H69      H      0.062910000000     0.821060000000     0.041180000000     0.0395925  
H70      H      0.062960000000     0.858120000000     0.912360000000     0.0388725  
H71      H      0.816410000000     0.937970000000     0.042930000000     0.0391435  
H72      H      0.810870000000     0.937140000000     0.917680000000     0.0391491  
H73      H      0.833740000000     0.000340000000     0.891720000000     0.0414672  
H74      H      0.841290000000     0.999890000000     0.063570000000     0.0409763  
H75      H      0.822680000000     0.063710000000     0.043530000000     0.0394715  
H76      H      0.858570000000     0.063710000000     0.913970000000     0.0389821  
H77      H      0.857690000000     0.935880000000     0.039150000000     0.0398387  
H78      H      0.852120000000     0.935020000000     0.913330000000     0.0392012  
H79      H      0.817250000000     0.065210000000     0.917300000000     0.0395745  
H80      H      0.863950000000     0.062280000000     0.038800000000     0.0396481  
H81      H      0.164870000000     0.730800000000     0.594330000000     0.0412107  
H82      H      0.216310000000     0.733470000000     0.496030000000     0.0354117  
H83      H      0.215720000000     0.669620000000     0.464520000000     0.041558   
H84      H      0.131470000000     0.667360000000     0.581570000000     0.0420771  
H85      H      0.149260000000     0.602040000000     0.578950000000     0.0364274  
H86      H      0.196370000000     0.606330000000     0.457070000000     0.0364091  
H87      H      0.131610000000     0.732210000000     0.557390000000     0.0360512  
H88      H      0.183770000000     0.732060000000     0.457750000000     0.0424322  
H89      H      0.218710000000     0.604740000000     0.509280000000     0.0415279  
H90      H      0.126440000000     0.606400000000     0.527600000000     0.0418365  
H91      H      0.207670000000     0.271560000000     0.456130000000     0.036248   
H92      H      0.152330000000     0.272640000000     0.551850000000     0.0424494  
H93      H      0.121030000000     0.335190000000     0.541790000000     0.0418104  
H94      H      0.208560000000     0.336140000000     0.430240000000     0.0419374  
H95      H      0.212170000000     0.397710000000     0.482630000000     0.0417167  
H96      H      0.119490000000     0.399600000000     0.495740000000     0.0415506  
H97      H      0.175660000000     0.272710000000     0.416780000000     0.041199   
H98      H      0.121080000000     0.271040000000     0.511230000000     0.0365781  
H99      H      0.140510000000     0.398530000000     0.549180000000     0.0366492  
H100     H      0.190620000000     0.401460000000     0.429960000000     0.0365603  
H101     H      0.174800000000     0.733430000000     0.911570000000     0.041107   
H102     H      0.118860000000     0.735790000000     0.004020000000     0.0366262  
H103     H      0.119190000000     0.672120000000     0.037030000000     0.0417774  
H104     H      0.208180000000     0.670520000000     0.928110000000     0.0419074  
H105     H      0.190950000000     0.604980000000     0.929590000000     0.0366623  
H106     H      0.139500000000     0.609220000000     0.047420000000     0.0366625  
H107     H      0.206250000000     0.735430000000     0.951860000000     0.036318   
H108     H      0.149450000000     0.735090000000     0.045810000000     0.0425302  
H109     H      0.119040000000     0.606960000000     0.993570000000     0.0415679  
H110     H      0.211830000000     0.609860000000     0.982660000000     0.0416386  
H111     H      0.216960000000     0.274140000000     0.988600000000     0.0355316  
H112     H      0.165150000000     0.274990000000     0.086770000000     0.041331   
H113     H      0.131930000000     0.338560000000     0.076620000000     0.0420032  
H114     H      0.216470000000     0.338560000000     0.959990000000     0.04157    
H115     H      0.219460000000     0.402430000000     0.007860000000     0.0414663  
H116     H      0.127130000000     0.400650000000     0.025610000000     0.0418611  
H117     H      0.184440000000     0.276160000000     0.950310000000     0.0422391  
H118     H      0.132070000000     0.274190000000     0.049430000000     0.0361444  
H119     H      0.149900000000     0.403810000000     0.077220000000     0.0363975  
H120     H      0.197280000000     0.402030000000     0.955440000000     0.0364549  
H121     H      0.127230000000     0.474380000000     0.849900000000     0.039057   
H122     H      0.210700000000     0.475630000000     0.850900000000     0.0389507  
H123     H      0.226850000000     0.494600000000     0.754370000000     0.0411222  
H124     H      0.111940000000     0.493650000000     0.752440000000     0.0411359  
H125     H      0.128510000000     0.472630000000     0.656900000000     0.0388787  
H126     H      0.212420000000     0.514150000000     0.658740000000     0.0393319  
H127     H      0.126120000000     0.515720000000     0.847050000000     0.0392404  
H128     H      0.210560000000     0.516970000000     0.847850000000     0.0399379  
H129     H      0.211780000000     0.472750000000     0.657910000000     0.0389863  
H130     H      0.127790000000     0.514020000000     0.657940000000     0.0400579  
H131     H      0.126000000000     0.491200000000     0.347030000000     0.0392184  
H132     H      0.210440000000     0.490510000000     0.348050000000     0.0400294  
H133     H      0.226710000000     0.512860000000     0.254570000000     0.0411667  
H134     H      0.111810000000     0.513080000000     0.252270000000     0.0411582  
H135     H      0.127940000000     0.492730000000     0.157820000000     0.0400599  
H136     H      0.211680000000     0.534520000000     0.158030000000     0.0389985  
H137     H      0.126840000000     0.532560000000     0.349750000000     0.0390374  
H138     H      0.210300000000     0.531850000000     0.350970000000     0.0390277  
H139     H      0.212540000000     0.493120000000     0.158890000000     0.0393477  
H140     H      0.128380000000     0.534120000000     0.156750000000     0.0389276  
H141     H      0.272430000000     0.129430000000     0.468800000000     0.0368973  
H142     H      0.270980000000     0.182060000000     0.566840000000     0.0414096  
H143     H      0.334050000000     0.214860000000     0.560110000000     0.0416701  
H144     H      0.337060000000     0.130450000000     0.443300000000     0.0418768  
H145     H      0.398780000000     0.126820000000     0.494820000000     0.0419155  
H146     H      0.398260000000     0.219080000000     0.513970000000     0.0412676  
H147     H      0.274200000000     0.162050000000     0.430630000000     0.0418084  
H148     H      0.270120000000     0.214630000000     0.528510000000     0.0363143  
H149     H      0.398520000000     0.196320000000     0.565820000000     0.0363987  
H150     H      0.401170000000     0.149830000000     0.443340000000     0.0365978  
H151     H      0.729980000000     0.156400000000     0.443540000000     0.041967   
H152     H      0.734290000000     0.209540000000     0.541220000000     0.0363312  
H153     H      0.670480000000     0.210170000000     0.572260000000     0.041757   
H154     H      0.667350000000     0.125200000000     0.456360000000     0.0417328  
H155     H      0.603800000000     0.145000000000     0.455030000000     0.0365934  
H156     H      0.605460000000     0.192130000000     0.577010000000     0.0364713  
H157     H      0.732120000000     0.124110000000     0.482260000000     0.0367506  
H158     H      0.733740000000     0.176950000000     0.579530000000     0.0413739  
H159     H      0.606950000000     0.214900000000     0.525220000000     0.0415042  
H160     H      0.604960000000     0.122560000000     0.507170000000     0.0416083  
H161     H      0.277750000000     0.181890000000     0.951060000000     0.0421585  
H162     H      0.275220000000     0.131730000000     0.052530000000     0.036176   
H163     H      0.339220000000     0.133190000000     0.081840000000     0.0418224  
H164     H      0.339630000000     0.214960000000     0.960850000000     0.0415639  
H165     H      0.403450000000     0.196570000000     0.959230000000     0.0365226  
H166     H      0.404150000000     0.152260000000     0.083600000000     0.0363493  
H167     H      0.274890000000     0.215250000000     0.987580000000     0.0356371  
H168     H      0.275140000000     0.165560000000     0.088350000000     0.0412972  
H169     H      0.402120000000     0.128170000000     0.033230000000     0.0418468  
H170     H      0.402760000000     0.220020000000     0.010380000000     0.0414348  
H171     H      0.736570000000     0.119860000000     0.007700000000     0.0366325  
H172     H      0.733050000000     0.174570000000     0.914010000000     0.0409066  
H173     H      0.670830000000     0.208940000000     0.932380000000     0.0418099  
H174     H      0.673770000000     0.121630000000     0.044250000000     0.0416611  
H175     H      0.607790000000     0.121600000000     0.004640000000     0.041744   
H176     H      0.611320000000     0.214140000000     0.989660000000     0.0413497  
H177     H      0.737140000000     0.150840000000     0.048830000000     0.0426731  
H178     H      0.736240000000     0.206580000000     0.953140000000     0.0362214  
H179     H      0.605160000000     0.192480000000     0.937600000000     0.0367229  
H180     H      0.611430000000     0.143220000000     0.057290000000     0.036656   
H181     H      0.518710000000     0.207460000000     0.667600000000     0.0399205  
H182     H      0.518410000000     0.123190000000     0.665280000000     0.039196   
H183     H      0.497790000000     0.107370000000     0.761530000000     0.0414317  
H184     H      0.498070000000     0.222290000000     0.761440000000     0.0409082  
H185     H      0.519450000000     0.207570000000     0.854870000000     0.0399745  
H186     H      0.477720000000     0.123830000000     0.859030000000     0.0390139  
H187     H      0.477310000000     0.207300000000     0.666630000000     0.0392846  
H188     H      0.477020000000     0.123670000000     0.664410000000     0.0390251  
H189     H      0.519100000000     0.123170000000     0.857340000000     0.0391729  
H190     H      0.478070000000     0.207320000000     0.856730000000     0.0390735  
H191     H      0.528000000000     0.135030000000     0.357340000000     0.039276   
H192     H      0.528270000000     0.218910000000     0.359620000000     0.0391264  
H193     H      0.510260000000     0.235160000000     0.261340000000     0.0413367  
H194     H      0.510360000000     0.120240000000     0.261290000000     0.0408737  
H195     H      0.533410000000     0.135540000000     0.167390000000     0.0390414  
H196     H      0.491820000000     0.219370000000     0.164250000000     0.0393146  
H197     H      0.486660000000     0.135160000000     0.353830000000     0.0396561  
H198     H      0.486940000000     0.219190000000     0.356270000000     0.0390327  
H199     H      0.533210000000     0.218800000000     0.165160000000     0.0388972  
H200     H      0.492010000000     0.134740000000     0.166590000000     0.0400806  
H201     H      0.847850000000     0.270630000000     0.562320000000     0.0420096  
H202     H      0.794370000000     0.268310000000     0.464600000000     0.0364667  
H203     H      0.793830000000     0.332570000000     0.436380000000     0.0418654  
H204     H      0.878830000000     0.333430000000     0.552310000000     0.0417463  
H205     H      0.858690000000     0.396990000000     0.556600000000     0.0367724  
H206     H      0.811790000000     0.397540000000     0.434420000000     0.0368399  
H207     H      0.879940000000     0.269130000000     0.523140000000     0.03671    
H208     H      0.826960000000     0.269460000000     0.426320000000     0.0412333  
H209     H      0.789090000000     0.395070000000     0.486190000000     0.0413959  
H210     H      0.881400000000     0.396850000000     0.504700000000     0.0416917  
H211     H      0.828690000000     0.727910000000     0.568530000000     0.0417784  
H212     H      0.876570000000     0.730210000000     0.464900000000     0.0361968  
H213     H      0.874010000000     0.666450000000     0.435050000000     0.0418504  
H214     H      0.794800000000     0.666050000000     0.559870000000     0.0415577  
H215     H      0.812700000000     0.601800000000     0.559390000000     0.0364676  
H216     H      0.854480000000     0.602090000000     0.433060000000     0.0365154  
H217     H      0.794480000000     0.730870000000     0.533830000000     0.0355953  
H218     H      0.842070000000     0.730380000000     0.430510000000     0.0415672  
H219     H      0.879430000000     0.603240000000     0.482560000000     0.0418128  
H220     H      0.788070000000     0.603420000000     0.509530000000     0.0415241  
H221     H      0.880050000000     0.269940000000     0.963350000000     0.0367991  
H222     H      0.828310000000     0.268740000000     0.062000000000     0.0413643  
H223     H      0.795260000000     0.332050000000     0.055230000000     0.0418241  
H224     H      0.878880000000     0.334700000000     0.937130000000     0.041832   
H225     H      0.882220000000     0.397300000000     0.987510000000     0.0415854  
H226     H      0.790110000000     0.395390000000     0.007970000000     0.0415298  
H227     H      0.847310000000     0.272110000000     0.925480000000     0.0419188  
H228     H      0.795300000000     0.268230000000     0.024500000000     0.0363054  
H229     H      0.813440000000     0.396970000000     0.059190000000     0.0367003  
H230     H      0.859140000000     0.398380000000     0.935990000000     0.0367679  
H231     H      0.789350000000     0.730390000000     0.959540000000     0.0357166  
H232     H      0.838260000000     0.731170000000     0.061310000000     0.0414108  
H233     H      0.871520000000     0.667940000000     0.056230000000     0.0417822  
H234     H      0.790890000000     0.665510000000     0.933520000000     0.0415685  
H235     H      0.786130000000     0.602910000000     0.984090000000     0.0415383  
H236     H      0.877740000000     0.604650000000     0.009000000000     0.0417074  
H237     H      0.823100000000     0.728150000000     0.923720000000     0.0419089  
H238     H      0.872330000000     0.731690000000     0.026000000000     0.036269   
H239     H      0.853350000000     0.603170000000     0.059110000000     0.036567   
H240     H      0.810330000000     0.601650000000     0.933750000000     0.036548   
H241     H      0.873670000000     0.524870000000     0.842190000000     0.0397331  
H242     H      0.790200000000     0.515620000000     0.842040000000     0.0388301  
H243     H      0.777180000000     0.493350000000     0.746650000000     0.0411097  
H244     H      0.891450000000     0.505820000000     0.746840000000     0.04118    
H245     H      0.873920000000     0.524590000000     0.651320000000     0.0395555  
H246     H      0.794840000000     0.474450000000     0.651290000000     0.0396194  
H247     H      0.878220000000     0.483710000000     0.842350000000     0.0388785  
H248     H      0.794780000000     0.474460000000     0.842150000000     0.0396075  
H249     H      0.790410000000     0.515620000000     0.651280000000     0.0389301  
H250     H      0.878320000000     0.483410000000     0.651370000000     0.0388555  
H251     H      0.790450000000     0.482770000000     0.342100000000     0.0389482  
H252     H      0.874120000000     0.475770000000     0.341870000000     0.0397444  
H253     H      0.891240000000     0.495480000000     0.246650000000     0.0411776  
H254     H      0.776660000000     0.504860000000     0.246840000000     0.0412451  
H255     H      0.790390000000     0.483110000000     0.151350000000     0.0390201  
H256     H      0.877390000000     0.517690000000     0.151410000000     0.0389258  
H257     H      0.793910000000     0.524040000000     0.342360000000     0.0397411  
H258     H      0.877590000000     0.517040000000     0.342180000000     0.0388973  
H259     H      0.874140000000     0.476400000000     0.151260000000     0.0396826  
H260     H      0.793740000000     0.524390000000     0.151440000000     0.0396315  
H261     H      0.272580000000     0.793170000000     0.490910000000     0.0355594  
H262     H      0.274720000000     0.842090000000     0.592430000000     0.0411915  
H263     H      0.338090000000     0.875340000000     0.582960000000     0.0418954  
H264     H      0.336380000000     0.794600000000     0.460380000000     0.0415888  
H265     H      0.400340000000     0.789640000000     0.506040000000     0.0417955  
H266     H      0.399930000000     0.881280000000     0.530900000000     0.0414739  
H267     H      0.273940000000     0.826830000000     0.454790000000     0.0421932  
H268     H      0.273320000000     0.876200000000     0.557260000000     0.036102   
H269     H      0.403020000000     0.856990000000     0.580960000000     0.0365519  
H270     H      0.399980000000     0.813890000000     0.455710000000     0.0366092  
H271     H      0.734450000000     0.789870000000     0.533340000000     0.0355761  
H272     H      0.732830000000     0.838690000000     0.431830000000     0.041137   
H273     H      0.669870000000     0.872770000000     0.441310000000     0.0417962  
H274     H      0.670600000000     0.792060000000     0.563950000000     0.041588   
H275     H      0.606480000000     0.787950000000     0.518330000000     0.0418204  
H276     H      0.608210000000     0.879570000000     0.493450000000     0.0415341  
H277     H      0.733430000000     0.823530000000     0.569490000000     0.042251   
H278     H      0.734580000000     0.872850000000     0.466860000000     0.0360744  
H279     H      0.604710000000     0.855300000000     0.443430000000     0.0364965  
H280     H      0.607250000000     0.812180000000     0.568670000000     0.0366766  
H281     H      0.266220000000     0.827090000000     0.064640000000     0.041492   
H282     H      0.269430000000     0.878950000000     0.965800000000     0.0369475  
H283     H      0.335040000000     0.879010000000     0.944480000000     0.0419243  
H284     H      0.330090000000     0.795460000000     0.062510000000     0.0417062  
H285     H      0.394330000000     0.815040000000     0.071510000000     0.0366565  
H286     H      0.399220000000     0.860640000000     0.948440000000     0.0369388  
H287     H      0.267350000000     0.794210000000     0.026940000000     0.036379   
H288     H      0.273190000000     0.846100000000     0.928430000000     0.041735   
H289     H      0.395870000000     0.883610000000     0.999830000000     0.041392   
H290     H      0.395020000000     0.791510000000     0.020470000000     0.0418264  
H291     H      0.602620000000     0.787160000000     0.997150000000     0.0414483  
H292     H      0.604490000000     0.853720000000     0.073080000000     0.0364865  
H293     H      0.668680000000     0.873120000000     0.065050000000     0.0417558  
H294     H      0.663100000000     0.793460000000     0.941210000000     0.0416696  
H295     H      0.728760000000     0.792720000000     0.961700000000     0.0357749  
H296     H      0.731390000000     0.875130000000     0.029650000000     0.0363003  
H297     H      0.598900000000     0.811560000000     0.947310000000     0.036671   
H298     H      0.603530000000     0.878590000000     0.023490000000     0.0419189  
H299     H      0.732260000000     0.840930000000     0.064630000000     0.0417209  
H300     H      0.725140000000     0.826920000000     0.927120000000     0.0416348  
H301     H      0.481160000000     0.795320000000     0.665860000000     0.0399449  
H302     H      0.490470000000     0.879240000000     0.666030000000     0.0392848  
H303     H      0.510130000000     0.892310000000     0.762410000000     0.041347   
H304     H      0.497200000000     0.778090000000     0.762040000000     0.0411984  
H305     H      0.475370000000     0.796140000000     0.855960000000     0.0396143  
H306     H      0.526110000000     0.874800000000     0.859120000000     0.0398902  
H307     H      0.522360000000     0.791230000000     0.667770000000     0.0387402  
H308     H      0.531560000000     0.874220000000     0.667880000000     0.0394887  
H309     H      0.484990000000     0.879360000000     0.856330000000     0.0388546  
H310     H      0.516440000000     0.791180000000     0.858820000000     0.0389292  
H311     H      0.516330000000     0.878540000000     0.166810000000     0.0389709  
H312     H      0.522650000000     0.794710000000     0.166720000000     0.0396867  
H313     H      0.503820000000     0.777800000000     0.262250000000     0.0412373  
H314     H      0.494890000000     0.892400000000     0.262320000000     0.0410424  
H315     H      0.517330000000     0.878720000000     0.357240000000     0.0388342  
H316     H      0.482790000000     0.791690000000     0.358230000000     0.0387963  
H317     H      0.475040000000     0.875350000000     0.166950000000     0.0395218  
H318     H      0.481350000000     0.791700000000     0.166940000000     0.0389523  
H319     H      0.524080000000     0.794850000000     0.357080000000     0.0398483  
H320     H      0.476080000000     0.875220000000     0.358310000000     0.0394965  
N1       N      0.169930000000     0.924250000000     0.512820000000    -0.181048   
N2       N      0.171840000000     0.080150000000     0.501100000000    -0.180793   
N3       N      0.172550000000     0.082800000000     0.003000000000    -0.181118   
N4       N      0.168550000000     0.926940000000     0.992000000000    -0.180764   
N5       N      0.080050000000     0.165610000000     0.488670000000    -0.181255   
N6       N      0.924210000000     0.165230000000     0.493190000000    -0.181347   
N7       N      0.083740000000     0.172060000000     0.002280000000    -0.181029   
N8       N      0.927860000000     0.169200000000     0.991270000000    -0.180885   
N9       N      0.081640000000     0.833820000000     0.515700000000    -0.181702   
N10      N      0.925810000000     0.832810000000     0.510330000000    -0.181644   
N11      N      0.836410000000     0.921790000000     0.509910000000    -0.181749   
N12      N      0.834710000000     0.077610000000     0.507930000000    -0.181553   
N13      N      0.077240000000     0.839780000000     0.976890000000    -0.18089    
N14      N      0.921330000000     0.832910000000     0.976850000000    -0.181143   
N15      N      0.840740000000     0.077980000000     0.978800000000    -0.181311   
N16      N      0.833720000000     0.922270000000     0.978570000000    -0.18156    
N17      N      0.172170000000     0.590720000000     0.516380000000    -0.180975   
N18      N      0.173660000000     0.746350000000     0.526250000000    -0.180871   
N19      N      0.166190000000     0.413510000000     0.490890000000    -0.180831   
N20      N      0.164610000000     0.257760000000     0.484430000000    -0.180753   
N21      N      0.165970000000     0.593610000000     0.990340000000    -0.180832   
N22      N      0.162670000000     0.749170000000     0.978390000000    -0.18069    
N23      N      0.172940000000     0.416420000000     0.015350000000    -0.181034   
N24      N      0.174270000000     0.260670000000     0.018160000000    -0.180987   
N25      N      0.170260000000     0.494180000000     0.636470000000    -0.180981   
N26      N      0.168510000000     0.496770000000     0.870280000000    -0.180988   
N27      N      0.170300000000     0.512850000000     0.136460000000    -0.180955   
N28      N      0.168230000000     0.510460000000     0.370320000000    -0.180941   
N29      N      0.413360000000     0.172970000000     0.505290000000    -0.181387   
N30      N      0.257750000000     0.171860000000     0.498000000000    -0.181302   
N31      N      0.591100000000     0.169030000000     0.516040000000    -0.181521   
N32      N      0.746700000000     0.166800000000     0.510610000000    -0.181403   
N33      N      0.417330000000     0.173950000000     0.020900000000    -0.18091    
N34      N      0.261560000000     0.173080000000     0.018950000000    -0.180962   
N35      N      0.594810000000     0.168610000000     0.999780000000    -0.180859   
N36      N      0.750010000000     0.163200000000     0.980450000000    -0.180721   
N37      N      0.499380000000     0.165770000000     0.878380000000    -0.181119   
N38      N      0.498360000000     0.165690000000     0.644580000000    -0.181066   
N39      N      0.512230000000     0.176820000000     0.144390000000    -0.180935   
N40      N      0.506600000000     0.176780000000     0.378160000000    -0.181002   
N41      N      0.834920000000     0.410780000000     0.495960000000    -0.181404   
N42      N      0.837080000000     0.255210000000     0.494660000000    -0.181587   
N43      N      0.833720000000     0.588480000000     0.496250000000    -0.181469   
N44      N      0.835950000000     0.743980000000     0.500220000000    -0.181715   
N45      N      0.835870000000     0.411190000000     0.997590000000    -0.181377   
N46      N      0.837630000000     0.255590000000     0.992890000000    -0.181369   
N47      N      0.832200000000     0.588920000000     0.996520000000    -0.181346   
N48      N      0.830970000000     0.744510000000     0.991760000000    -0.181503   
N49      N      0.834380000000     0.499520000000     0.629990000000    -0.181679   
N50      N      0.834190000000     0.499710000000     0.863500000000    -0.181655   
N51      N      0.833900000000     0.500390000000     0.130070000000    -0.181878   
N52      N      0.834040000000     0.499840000000     0.363420000000    -0.18185    
N53      N      0.414970000000     0.835650000000     0.517400000000    -0.181538   
N54      N      0.259480000000     0.834890000000     0.523750000000    -0.181689   
N55      N      0.592520000000     0.834170000000     0.507030000000    -0.181346   
N56      N      0.747990000000     0.831450000000     0.500520000000    -0.181613   
N57      N      0.410320000000     0.837550000000     0.010990000000    -0.180829   
N58      N      0.254870000000     0.836380000000     0.994760000000    -0.18094    
N59      N      0.743550000000     0.834080000000     0.994100000000    -0.181177   
N60      N      0.588190000000     0.832830000000     0.011450000000    -0.180846   
N61      N      0.500240000000     0.835390000000     0.878870000000    -0.181595   
N62      N      0.506420000000     0.835010000000     0.645540000000    -0.181514   
N63      N      0.500480000000     0.835140000000     0.379030000000    -0.181627   
N64      N      0.498880000000     0.835080000000     0.145530000000    -0.181519   
O1       O      0.497320000000     0.860710000000     0.077300000000    -0.55691    
O2       O      0.502620000000     0.860760000000     0.947270000000    -0.556852   
O3       O      0.456550000000     0.861790000000     0.007420000000    -0.554897   
O4       O      0.543390000000     0.859490000000     0.017120000000    -0.554835   
O5       O      0.541990000000     0.808660000000     0.007730000000    -0.555635   
O6       O      0.455140000000     0.810920000000     0.016350000000    -0.555135   
O7       O      0.496390000000     0.809900000000     0.947040000000    -0.556619   
O8       O      0.500820000000     0.809580000000     0.077180000000    -0.556586   
O9       O      0.508070000000     0.860560000000     0.577190000000    -0.555668   
O10      O      0.499830000000     0.860680000000     0.447420000000    -0.555876   
O11      O      0.460670000000     0.860910000000     0.519500000000    -0.554932   
O12      O      0.547230000000     0.860180000000     0.505100000000    -0.555139   
O13      O      0.546950000000     0.809310000000     0.514330000000    -0.558628   
O14      O      0.460110000000     0.810050000000     0.510160000000    -0.558968   
O15      O      0.504310000000     0.809630000000     0.447140000000    -0.558358   
O16      O      0.502680000000     0.809590000000     0.577350000000    -0.558099   
O17      O      0.859550000000     0.502830000000     0.931840000000    -0.557628   
O18      O      0.859490000000     0.498320000000     0.061900000000    -0.558367   
O19      O      0.860310000000     0.457190000000     0.992650000000    -0.557152   
O20      O      0.858580000000     0.543980000000     0.001250000000    -0.556814   
O21      O      0.807730000000     0.542920000000     0.991920000000    -0.556491   
O22      O      0.809430000000     0.456150000000     0.001650000000    -0.556015   
O23      O      0.808390000000     0.502170000000     0.061770000000    -0.557289   
O24      O      0.808650000000     0.496930000000     0.931730000000    -0.557178   
O25      O      0.859660000000     0.497450000000     0.431560000000    -0.558006   
O26      O      0.859820000000     0.502190000000     0.561640000000    -0.557227   
O27      O      0.859950000000     0.456440000000     0.500950000000    -0.557992   
O28      O      0.859430000000     0.543170000000     0.491990000000    -0.557583   
O29      O      0.808570000000     0.542880000000     0.501420000000    -0.556437   
O30      O      0.809050000000     0.456070000000     0.492050000000    -0.556311   
O31      O      0.808840000000     0.496960000000     0.561770000000    -0.557476   
O32      O      0.808610000000     0.501980000000     0.431750000000    -0.557621   
O33      O      0.502000000000     0.142670000000     0.949140000000    -0.552235   
O34      O      0.509060000000     0.148830000000     0.078820000000    -0.559978   
O35      O      0.462170000000     0.147050000000     0.020580000000    -0.555211   
O36      O      0.548920000000     0.144590000000     0.009950000000    -0.556187   
O37      O      0.550040000000     0.195580000000     0.002270000000    -0.555462   
O38      O      0.463290000000     0.198000000000     0.012250000000    -0.556548   
O39      O      0.509980000000     0.199940000000     0.073580000000    -0.551911   
O40      O      0.503300000000     0.193770000000     0.943840000000    -0.560238   
O41      O      0.499810000000     0.142570000000     0.573750000000    -0.553167   
O42      O      0.503760000000     0.148770000000     0.443760000000    -0.560831   
O43      O      0.545140000000     0.144760000000     0.510230000000    -0.559628   
O44      O      0.458400000000     0.146660000000     0.504550000000    -0.559234   
O45      O      0.459170000000     0.197640000000     0.512510000000    -0.555471   
O46      O      0.546180000000     0.195740000000     0.518150000000    -0.555219   
O47      O      0.504670000000     0.199890000000     0.448980000000    -0.551339   
O48      O      0.500730000000     0.193690000000     0.578960000000    -0.559814   
O49      O      0.144400000000     0.508360000000     0.069070000000    -0.558578   
O50      O      0.143250000000     0.499900000000     0.939230000000    -0.552974   
O51      O      0.145490000000     0.460860000000     0.011850000000    -0.555302   
O52      O      0.142230000000     0.547460000000     0.999070000000    -0.556035   
O53      O      0.193390000000     0.549200000000     0.995030000000    -0.555681   
O54      O      0.196620000000     0.462600000000     0.007250000000    -0.556562   
O55      O      0.194440000000     0.501830000000     0.937570000000    -0.558606   
O56      O      0.195600000000     0.509960000000     0.067490000000    -0.552657   
O57      O      0.142970000000     0.507170000000     0.439290000000    -0.552328   
O58      O      0.144250000000     0.498600000000     0.569150000000    -0.558538   
O59      O      0.145010000000     0.546150000000     0.512080000000    -0.555317   
O60      O      0.142240000000     0.459570000000     0.499140000000    -0.556355   
O61      O      0.193400000000     0.458090000000     0.494960000000    -0.555009   
O62      O      0.196150000000     0.544730000000     0.507430000000    -0.556137   
O63      O      0.195460000000     0.497280000000     0.567460000000    -0.552769   
O64      O      0.194170000000     0.505550000000     0.437610000000    -0.558868   
O65      O      0.877360000000     0.834210000000     0.018490000000    -0.563775   
O66      O      0.790790000000     0.835970000000     0.027380000000    -0.559573   
O67      O      0.834400000000     0.791260000000     0.026300000000    -0.559663   
O68      O      0.834650000000     0.877950000000     0.019460000000    -0.563913   
O69      O      0.830900000000     0.875510000000     0.942970000000    -0.552172   
O70      O      0.829410000000     0.788520000000     0.949960000000    -0.555956   
O71      O      0.787070000000     0.831750000000     0.951040000000    -0.553726   
O72      O      0.874160000000     0.831390000000     0.941970000000    -0.550007   
O73      O      0.881290000000     0.833840000000     0.469640000000    -0.560389   
O74      O      0.794380000000     0.834560000000     0.464640000000    -0.556725   
O75      O      0.837920000000     0.877180000000     0.469720000000    -0.562128   
O76      O      0.838580000000     0.790410000000     0.464560000000    -0.558215   
O77      O      0.835160000000     0.788330000000     0.541150000000    -0.558627   
O78      O      0.835460000000     0.875310000000     0.546380000000    -0.555145   
O79      O      0.792380000000     0.830820000000     0.541200000000    -0.559778   
O80      O      0.879250000000     0.831850000000     0.546320000000    -0.556399   
O81      O      0.841320000000     0.122190000000     0.020060000000    -0.560741   
O82      O      0.833540000000     0.208630000000     0.026940000000    -0.556256   
O83      O      0.794610000000     0.161030000000     0.020570000000    -0.559796   
O84      O      0.881090000000     0.168720000000     0.026550000000    -0.556565   
O85      O      0.883470000000     0.167220000000     0.949880000000    -0.553226   
O86      O      0.796330000000     0.170240000000     0.945120000000    -0.550392   
O87      O      0.841900000000     0.211700000000     0.951350000000    -0.556584   
O88      O      0.838820000000     0.124850000000     0.943470000000    -0.552154   
O89      O      0.835550000000     0.121850000000     0.466710000000    -0.559688   
O90      O      0.830970000000     0.208540000000     0.460500000000    -0.555558   
O91      O      0.877030000000     0.166870000000     0.458800000000    -0.553893   
O92      O      0.790310000000     0.162540000000     0.468380000000    -0.557774   
O93      O      0.793860000000     0.171520000000     0.543770000000    -0.555287   
O94      O      0.880350000000     0.164890000000     0.535370000000    -0.559513   
O95      O      0.840760000000     0.211080000000     0.535750000000    -0.558744   
O96      O      0.834400000000     0.124440000000     0.543380000000    -0.55456    
O97      O      0.170980000000     0.126830000000     0.045040000000    -0.556912   
O98      O      0.170340000000     0.213790000000     0.052570000000    -0.553333   
O99      O      0.127610000000     0.170380000000     0.044640000000    -0.557002   
O100     O      0.214520000000     0.169470000000     0.052990000000    -0.553546   
O101     O      0.217810000000     0.174010000000     0.976640000000    -0.558377   
O102     O      0.130970000000     0.173590000000     0.968170000000    -0.555215   
O103     O      0.175300000000     0.216750000000     0.976250000000    -0.558459   
O104     O      0.174450000000     0.129890000000     0.968570000000    -0.555492   
O105     O      0.169410000000     0.123990000000     0.458680000000    -0.555368   
O106     O      0.171460000000     0.210930000000     0.450820000000    -0.551909   
O107     O      0.213490000000     0.166050000000     0.457680000000    -0.555932   
O108     O      0.126470000000     0.167950000000     0.451920000000    -0.55191    
O109     O      0.124750000000     0.166620000000     0.528630000000    -0.56087    
O110     O      0.211100000000     0.175510000000     0.533040000000    -0.556214   
O111     O      0.163020000000     0.213830000000     0.526400000000    -0.557985   
O112     O      0.171720000000     0.127410000000     0.535210000000    -0.554442   
O113     O      0.124460000000     0.838210000000     0.942210000000    -0.549571   
O114     O      0.211410000000     0.841210000000     0.952070000000    -0.553599   
O115     O      0.169950000000     0.795760000000     0.944120000000    -0.55085    
O116     O      0.166860000000     0.882780000000     0.950150000000    -0.553797   
O117     O      0.167640000000     0.879960000000     0.026810000000    -0.555575   
O118     O      0.159970000000     0.793450000000     0.019320000000    -0.558885   
O119     O      0.207500000000     0.832350000000     0.027440000000    -0.556188   
O120     O      0.121170000000     0.840200000000     0.018760000000    -0.560856   
O121     O      0.126280000000     0.836020000000     0.556030000000    -0.557968   
O122     O      0.213240000000     0.837840000000     0.560160000000    -0.554633   
O123     O      0.169180000000     0.880080000000     0.554710000000    -0.555721   
O124     O      0.169600000000     0.793010000000     0.561410000000    -0.552334   
O125     O      0.173020000000     0.790470000000     0.484870000000    -0.560088   
O126     O      0.171020000000     0.877280000000     0.478080000000    -0.557128   
O127     O      0.214910000000     0.833700000000     0.483640000000    -0.561459   
O128     O      0.128070000000     0.833100000000     0.479410000000    -0.557899   
V1       V      0.500020000000     0.862820000000     0.012300000000     1.39011    
V2       V      0.498520000000     0.807630000000     0.012100000000     1.39106    
V3       V      0.503980000000     0.862730000000     0.512300000000     1.38673    
V4       V      0.503500000000     0.807520000000     0.512240000000     1.39963    
V5       V      0.861620000000     0.500620000000     0.996900000000     1.39481    
V6       V      0.806410000000     0.499500000000     0.996750000000     1.3924     
V7       V      0.861850000000     0.499820000000     0.496560000000     1.39557    
V8       V      0.806630000000     0.499460000000     0.496770000000     1.39289    
V9       V      0.505480000000     0.143730000000     0.014650000000     1.39058    
V10      V      0.506730000000     0.198880000000     0.008010000000     1.39187    
V11      V      0.501720000000     0.143640000000     0.508090000000     1.399      
V12      V      0.502730000000     0.198810000000     0.514660000000     1.38796    
V13      V      0.141780000000     0.504050000000     0.004620000000     1.39017    
V14      V      0.197070000000     0.506010000000     0.002040000000     1.39125    
V15      V      0.141560000000     0.502960000000     0.504720000000     1.39012    
V16      V      0.196850000000     0.501320000000     0.502040000000     1.39079    
V17      V      0.834360000000     0.834870000000     0.025940000000     1.4126     
V18      V      0.830320000000     0.831750000000     0.943340000000     1.37647    
V19      V      0.838060000000     0.834020000000     0.464060000000     1.40146    
V20      V      0.835580000000     0.831590000000     0.546870000000     1.39357    
V21      V      0.837610000000     0.165130000000     0.026690000000     1.40061    
V22      V      0.840120000000     0.168570000000     0.944220000000     1.37927    
V23      V      0.833370000000     0.164930000000     0.460400000000     1.3924     
V24      V      0.837400000000     0.168040000000     0.542770000000     1.39339    
V25      V      0.170790000000     0.170050000000     0.051900000000     1.38798    
V26      V      0.174670000000     0.173580000000     0.969330000000     1.39486    
V27      V      0.170230000000     0.167180000000     0.451550000000     1.38232    
V28      V      0.167680000000     0.170930000000     0.533990000000     1.39699    
V29      V      0.168260000000     0.839510000000     0.943900000000     1.3759     
V30      V      0.164020000000     0.836440000000     0.026240000000     1.3998     
V31      V      0.169560000000     0.836790000000     0.561190000000     1.38617    
V32      V      0.171710000000     0.833630000000     0.478430000000     1.4023     


