data_structure

_audit_creation_method RASPA-1.0
_audit_creation_date 2023-5-23
_audit_author_name 'Poobodin Mano'

_cell_length_a    40.7699
_cell_length_b    40.771
_cell_length_c    40.9461
_cell_angle_alpha 89.999
_cell_angle_beta  90.0002
_cell_angle_gamma 89.9984
_cell_volume      68061.8

_symmetry_cell_setting          triclinic
_symmetry_space_group_name_Hall 'P 1'
_symmetry_space_group_name_H-M  'P 1'
_symmetry_Int_Tables_number     1

_symmetry_equiv_pos_as_xyz 'x,y,z'

loop_
_atom_site_label
_atom_site_type_symbol
_atom_site_fract_x
_atom_site_fract_y
_atom_site_fract_z
_atom_site_charge
C1       C      0.460860000000     0.322270000000     0.934350000000     0.476899   
C2       C      0.548100000000     0.322410000000     0.022150000000     0.476994   
C3       C      0.460910000000     0.322310000000     0.022200000000     0.477029   
C4       C      0.548060000000     0.322370000000     0.934320000000     0.477265   
C5       C      0.226580000000     0.556730000000     0.022200000000     0.477365   
C6       C      0.226720000000     0.643890000000     0.934330000000     0.476886   
C7       C      0.226550000000     0.556700000000     0.934360000000     0.477074   
C8       C      0.226750000000     0.643930000000     0.022170000000     0.47724    
C9       C      0.549200000000     0.879220000000     0.934150000000     0.477387   
C10      C      0.462050000000     0.879140000000     0.022040000000     0.477295   
C11      C      0.549240000000     0.879240000000     0.022000000000     0.477001   
C12      C      0.462000000000     0.879120000000     0.934200000000     0.477204   
C13      C      0.783400000000     0.557630000000     0.021980000000     0.477281   
C14      C      0.783530000000     0.644790000000     0.934110000000     0.47702    
C15      C      0.783360000000     0.557600000000     0.934140000000     0.477301   
C16      C      0.783560000000     0.644820000000     0.021950000000     0.477092   
C17      C      0.283410000000     0.056710000000     0.522170000000     0.477162   
C18      C      0.283280000000     0.143930000000     0.434350000000     0.477261   
C19      C      0.283440000000     0.056740000000     0.434320000000     0.47742    
C20      C      0.283240000000     0.143900000000     0.522190000000     0.47703    
C21      C      0.962060000000     0.822530000000     0.434160000000     0.47703    
C22      C      0.049200000000     0.822400000000     0.522040000000     0.47735    
C23      C      0.962010000000     0.822510000000     0.522000000000     0.477203   
C24      C      0.049250000000     0.822420000000     0.434200000000     0.477117   
C25      C      0.726830000000     0.057600000000     0.521950000000     0.477341   
C26      C      0.726710000000     0.144820000000     0.434140000000     0.477101   
C27      C      0.726870000000     0.057630000000     0.434110000000     0.477302   
C28      C      0.726670000000     0.144780000000     0.521990000000     0.477101   
C29      C      0.048100000000     0.379020000000     0.434360000000     0.477216   
C30      C      0.960860000000     0.379100000000     0.522160000000     0.477349   
C31      C      0.048050000000     0.379000000000     0.522200000000     0.477255   
C32      C      0.960900000000     0.379130000000     0.434310000000     0.477267   
C33      C      0.268880000000     0.303310000000     0.265950000000     0.476826   
C34      C      0.240470000000     0.397680000000     0.190930000000     0.476896   
C35      C      0.207490000000     0.364700000000     0.265970000000     0.476879   
C36      C      0.301840000000     0.336300000000     0.190920000000     0.476669   
C37      C      0.740610000000     0.303930000000     0.265460000000     0.476928   
C38      C      0.769000000000     0.398280000000     0.190420000000     0.477185   
C39      C      0.801980000000     0.365310000000     0.265460000000     0.477016   
C40      C      0.707620000000     0.336890000000     0.190430000000     0.476971   
C41      C      0.740390000000     0.303730000000     0.690830000000     0.476979   
C42      C      0.768770000000     0.398080000000     0.765870000000     0.47723    
C43      C      0.801750000000     0.365110000000     0.690840000000     0.476835   
C44      C      0.707390000000     0.336690000000     0.765860000000     0.476923   
C45      C      0.802750000000     0.836900000000     0.265680000000     0.477062   
C46      C      0.708390000000     0.865300000000     0.190650000000     0.476695   
C47      C      0.741360000000     0.898280000000     0.265690000000     0.477022   
C48      C      0.769760000000     0.803930000000     0.190650000000     0.476867   
C49      C      0.741210000000     0.898240000000     0.690380000000     0.477013   
C50      C      0.769610000000     0.803870000000     0.765400000000     0.477006   
C51      C      0.802600000000     0.836850000000     0.690370000000     0.476842   
C52      C      0.708240000000     0.865250000000     0.765410000000     0.476841   
C53      C      0.302690000000     0.864810000000     0.190470000000     0.476951   
C54      C      0.208330000000     0.836390000000     0.265490000000     0.477052   
C55      C      0.241310000000     0.803420000000     0.190460000000     0.476877   
C56      C      0.269690000000     0.897760000000     0.265500000000     0.476651   
C57      C      0.269510000000     0.897610000000     0.690870000000     0.477143   
C58      C      0.241140000000     0.803270000000     0.765920000000     0.476952   
C59      C      0.208150000000     0.836240000000     0.690880000000     0.476828   
C60      C      0.302520000000     0.864660000000     0.765900000000     0.476826   
C61      C      0.207390000000     0.364610000000     0.690650000000     0.476902   
C62      C      0.301750000000     0.336190000000     0.765680000000     0.476791   
C63      C      0.268770000000     0.303220000000     0.690640000000     0.476911   
C64      C      0.240380000000     0.397570000000     0.765690000000     0.477025   
C65      C      0.154980000000     0.347510000000     0.665460000000    -0.016057   
C66      C      0.092490000000     0.405690000000     0.555060000000    -0.0165338  
C67      C      0.074880000000     0.350320000000     0.568400000000    -0.0160904  
C68      C      0.100210000000     0.361680000000     0.591660000000     0.0112859  
C69      C      0.111640000000     0.392510000000     0.583070000000     0.01066    
C70      C      0.138500000000     0.406730000000     0.599240000000    -0.0651101  
C71      C      0.181400000000     0.397010000000     0.645440000000    -0.0168455  
C72      C      0.112430000000     0.344940000000     0.618880000000    -0.0658997  
C73      C      0.151820000000     0.389180000000     0.625630000000     0.0106947  
C74      C      0.137940000000     0.359990000000     0.636110000000     0.0111264  
C75      C      0.155090000000     0.347590000000     0.291150000000    -0.0160174  
C76      C      0.092560000000     0.405730000000     0.401550000000    -0.0166328  
C77      C      0.074960000000     0.350370000000     0.388170000000    -0.0159853  
C78      C      0.100290000000     0.361730000000     0.364940000000     0.0112412  
C79      C      0.111730000000     0.392560000000     0.373540000000     0.0107245  
C80      C      0.138590000000     0.406790000000     0.357380000000    -0.0651931  
C81      C      0.181510000000     0.397080000000     0.311200000000    -0.0169354  
C82      C      0.112520000000     0.345010000000     0.337720000000    -0.0658496  
C83      C      0.151920000000     0.389240000000     0.331000000000     0.0107688  
C84      C      0.138040000000     0.360060000000     0.320500000000     0.0110685  
C85      C      0.916570000000     0.405960000000     0.401420000000    -0.0166151  
C86      C      0.854330000000     0.348120000000     0.290700000000    -0.0161324  
C87      C      0.827940000000     0.397640000000     0.310730000000    -0.0168496  
C88      C      0.857460000000     0.389720000000     0.330610000000     0.0107294  
C89      C      0.871310000000     0.360520000000     0.320120000000     0.0111378  
C90      C      0.896710000000     0.345370000000     0.337430000000    -0.0658969  
C91      C      0.934090000000     0.350560000000     0.388040000000    -0.0161365  
C92      C      0.870710000000     0.407190000000     0.357080000000    -0.0651814  
C93      C      0.908870000000     0.362020000000     0.364730000000     0.0113075  
C94      C      0.897470000000     0.392860000000     0.373320000000     0.0107092  
C95      C      0.827730000000     0.397460000000     0.645590000000    -0.0168143  
C96      C      0.934000000000     0.350500000000     0.568380000000    -0.0159808  
C97      C      0.916490000000     0.405900000000     0.555030000000    -0.0166251  
C98      C      0.897350000000     0.392770000000     0.583090000000     0.0107215  
C99      C      0.908750000000     0.361930000000     0.591670000000     0.0112438  
C100     C      0.896550000000     0.345240000000     0.618940000000    -0.0658944  
C101     C      0.854110000000     0.347930000000     0.665610000000    -0.0161513  
C102     C      0.870560000000     0.407060000000     0.599300000000    -0.0651444  
C103     C      0.871110000000     0.360360000000     0.636210000000     0.0111667  
C104     C      0.857260000000     0.389560000000     0.625730000000     0.0106914  
C105     C      0.699810000000     0.189110000000     0.554870000000    -0.0166097  
C106     C      0.757600000000     0.251400000000     0.665590000000    -0.0161215  
C107     C      0.708070000000     0.277760000000     0.645540000000    -0.0169109  
C108     C      0.716010000000     0.248250000000     0.625670000000     0.0107444  
C109     C      0.745210000000     0.234410000000     0.636170000000     0.0111079  
C110     C      0.760370000000     0.209010000000     0.618870000000    -0.0658435  
C111     C      0.755210000000     0.171620000000     0.568260000000    -0.0161132  
C112     C      0.698550000000     0.234980000000     0.599190000000    -0.0651943  
C113     C      0.743730000000     0.196840000000     0.591570000000     0.0112743  
C114     C      0.712890000000     0.208220000000     0.582960000000     0.0107131  
C115     C      0.757810000000     0.251580000000     0.290690000000    -0.0161321  
C116     C      0.699890000000     0.189180000000     0.401280000000    -0.0165395  
C117     C      0.755290000000     0.171690000000     0.387920000000    -0.0160603  
C118     C      0.743850000000     0.196940000000     0.364630000000     0.0113046  
C119     C      0.713000000000     0.208320000000     0.373220000000     0.0106619  
C120     C      0.698690000000     0.235110000000     0.357010000000    -0.0651406  
C121     C      0.708270000000     0.277940000000     0.310720000000    -0.0169173  
C122     C      0.760530000000     0.209140000000     0.337370000000    -0.065919   
C123     C      0.716190000000     0.248420000000     0.330580000000     0.0107276  
C124     C      0.745400000000     0.234580000000     0.320090000000     0.0111384  
C125     C      0.755570000000     0.030800000000     0.387930000000    -0.0160047  
C126     C      0.708940000000     0.924270000000     0.310890000000    -0.0169071  
C127     C      0.758450000000     0.950690000000     0.290880000000    -0.0160298  
C128     C      0.745940000000     0.967740000000     0.320210000000     0.0110691  
C129     C      0.716750000000     0.953860000000     0.330690000000     0.0107871  
C130     C      0.699190000000     0.967160000000     0.357070000000    -0.0652227  
C131     C      0.700200000000     0.013170000000     0.401260000000    -0.0166666  
C132     C      0.760980000000     0.993250000000     0.337460000000    -0.0658362  
C133     C      0.713410000000     0.994020000000     0.373250000000     0.0107484  
C134     C      0.744230000000     0.005470000000     0.364670000000     0.0112198  
C135     C      0.755500000000     0.030750000000     0.568150000000    -0.0160487  
C136     C      0.708810000000     0.924220000000     0.645160000000    -0.016835   
C137     C      0.758310000000     0.950650000000     0.665200000000    -0.0161053  
C138     C      0.745820000000     0.967700000000     0.635860000000     0.0111153  
C139     C      0.716640000000     0.953820000000     0.625370000000     0.0107239  
C140     C      0.699090000000     0.967120000000     0.598970000000    -0.0651461  
C141     C      0.700140000000     0.013130000000     0.554780000000    -0.0166044  
C142     C      0.760870000000     0.993210000000     0.618620000000    -0.0658673  
C143     C      0.713320000000     0.993970000000     0.582790000000     0.0106871  
C144     C      0.744140000000     0.005420000000     0.591390000000     0.0112706  
C145     C      0.093620000000     0.795620000000     0.401330000000    -0.0166409  
C146     C      0.155970000000     0.853560000000     0.290720000000    -0.0160855  
C147     C      0.182350000000     0.804030000000     0.310740000000    -0.0168527  
C148     C      0.152810000000     0.811930000000     0.330600000000     0.0107393  
C149     C      0.138970000000     0.841130000000     0.320110000000     0.0111083  
C150     C      0.113540000000     0.856260000000     0.337400000000    -0.065859   
C151     C      0.076110000000     0.851020000000     0.387970000000    -0.0160369  
C152     C      0.139540000000     0.794440000000     0.357040000000    -0.0651644  
C153     C      0.101360000000     0.839590000000     0.364680000000     0.0112571  
C154     C      0.112750000000     0.808740000000     0.373270000000     0.0107017  
C155     C      0.093540000000     0.795570000000     0.554940000000    -0.0166078  
C156     C      0.155800000000     0.853420000000     0.665650000000    -0.0161053  
C157     C      0.182180000000     0.803900000000     0.645610000000    -0.0168448  
C158     C      0.152660000000     0.811820000000     0.625740000000     0.0107175  
C159     C      0.138820000000     0.841010000000     0.636230000000     0.0111139  
C160     C      0.113410000000     0.856160000000     0.618930000000    -0.0658521  
C161     C      0.076020000000     0.850970000000     0.568310000000    -0.0161109  
C162     C      0.139410000000     0.794350000000     0.599270000000    -0.0651331  
C163     C      0.101250000000     0.839510000000     0.591630000000     0.0112647  
C164     C      0.112640000000     0.808670000000     0.583030000000     0.0106896  
C165     C      0.935150000000     0.851160000000     0.568180000000    -0.0160357  
C166     C      0.828590000000     0.804460000000     0.645150000000    -0.0168746  
C167     C      0.855010000000     0.853950000000     0.665200000000    -0.0160802  
C168     C      0.872070000000     0.841470000000     0.635870000000     0.011133   
C169     C      0.858190000000     0.812290000000     0.625370000000     0.0107237  
C170     C      0.871510000000     0.794750000000     0.598970000000    -0.0651554  
C171     C      0.917540000000     0.795800000000     0.554810000000    -0.0165743  
C172     C      0.897580000000     0.856530000000     0.618640000000    -0.0659138  
C173     C      0.898370000000     0.808980000000     0.582810000000     0.0107003  
C174     C      0.909810000000     0.839800000000     0.591420000000     0.0112766  
C175     C      0.855150000000     0.854000000000     0.290880000000    -0.0161807  
C176     C      0.917620000000     0.795830000000     0.401300000000    -0.0165508  
C177     C      0.935230000000     0.851200000000     0.387950000000    -0.0161567  
C178     C      0.909910000000     0.839840000000     0.364690000000     0.0113279  
C179     C      0.898480000000     0.809010000000     0.373280000000     0.0106694  
C180     C      0.871620000000     0.794780000000     0.357100000000    -0.0651758  
C181     C      0.828730000000     0.804490000000     0.310900000000    -0.0168751  
C182     C      0.897690000000     0.856570000000     0.337470000000    -0.0659245  
C183     C      0.858310000000     0.812330000000     0.330710000000     0.0107289  
C184     C      0.872190000000     0.841520000000     0.320230000000     0.0111693  
C185     C      0.309970000000     0.188400000000     0.401530000000    -0.0166875  
C186     C      0.251790000000     0.250900000000     0.291130000000    -0.0160086  
C187     C      0.301280000000     0.277320000000     0.311160000000    -0.0168392  
C188     C      0.293460000000     0.247720000000     0.330960000000     0.010746   
C189     C      0.264280000000     0.233840000000     0.320460000000     0.011069   
C190     C      0.249230000000     0.208330000000     0.337700000000    -0.0658564  
C191     C      0.254600000000     0.170780000000     0.388160000000    -0.0160423  
C192     C      0.311010000000     0.234420000000     0.357350000000    -0.0651893  
C193     C      0.265950000000     0.196120000000     0.364920000000     0.0112642  
C194     C      0.296780000000     0.207560000000     0.373520000000     0.0107347  
C195     C      0.309910000000     0.188350000000     0.555050000000    -0.0165747  
C196     C      0.251680000000     0.250810000000     0.665450000000    -0.0161734  
C197     C      0.301190000000     0.277240000000     0.645440000000    -0.0168314  
C198     C      0.293370000000     0.247650000000     0.625630000000     0.0107071  
C199     C      0.264190000000     0.233770000000     0.636110000000     0.0111493  
C200     C      0.249140000000     0.208260000000     0.618860000000    -0.0659114  
C201     C      0.254550000000     0.170720000000     0.568390000000    -0.0160355  
C202     C      0.310930000000     0.234350000000     0.599250000000    -0.0651241  
C203     C      0.265890000000     0.196050000000     0.591640000000     0.0112829  
C204     C      0.296720000000     0.207500000000     0.583060000000     0.010668   
C205     C      0.301850000000     0.923590000000     0.645600000000    -0.016941   
C206     C      0.254820000000     0.029840000000     0.568390000000    -0.0160361  
C207     C      0.310230000000     0.012350000000     0.555030000000    -0.0166228  
C208     C      0.297120000000     0.993210000000     0.583090000000     0.0107086  
C209     C      0.266260000000     0.004590000000     0.591680000000     0.0112711  
C210     C      0.249590000000     0.992390000000     0.618950000000    -0.0659098  
C211     C      0.252310000000     0.949960000000     0.665630000000    -0.0161572  
C212     C      0.311420000000     0.966420000000     0.599300000000    -0.0651508  
C213     C      0.264720000000     0.966950000000     0.636220000000     0.0111536  
C214     C      0.293930000000     0.953120000000     0.625740000000     0.0107303  
C215     C      0.252480000000     0.950100000000     0.290750000000    -0.0161379  
C216     C      0.310290000000     0.012410000000     0.401440000000    -0.0166362  
C217     C      0.254890000000     0.029900000000     0.388050000000    -0.0160999  
C218     C      0.266360000000     0.004670000000     0.364750000000     0.011295   
C219     C      0.297210000000     0.993300000000     0.373360000000     0.010692   
C220     C      0.311530000000     0.966520000000     0.357130000000    -0.0651531  
C221     C      0.302010000000     0.923730000000     0.310800000000    -0.0169596  
C222     C      0.249710000000     0.992490000000     0.337460000000    -0.065899   
C223     C      0.294060000000     0.953240000000     0.330680000000     0.0107595  
C224     C      0.264860000000     0.967080000000     0.320170000000     0.0111305  
C225     C      0.801400000000     0.424260000000     0.145200000000    -0.016803   
C226     C      0.754730000000     0.530810000000     0.068190000000    -0.0160736  
C227     C      0.810090000000     0.513180000000     0.054830000000    -0.0166023  
C228     C      0.796900000000     0.494020000000     0.082840000000     0.0106891  
C229     C      0.766080000000     0.505470000000     0.091440000000     0.011277   
C230     C      0.749350000000     0.493250000000     0.118660000000    -0.0658778  
C231     C      0.751900000000     0.450690000000     0.165230000000    -0.0161491  
C232     C      0.811120000000     0.467160000000     0.099010000000    -0.0651095  
C233     C      0.764390000000     0.467730000000     0.135880000000     0.0111548  
C234     C      0.793570000000     0.453850000000     0.125390000000     0.0107     
C235     C      0.752550000000     0.751580000000     0.165420000000    -0.0161882  
C236     C      0.810410000000     0.689180000000     0.054800000000    -0.0166168  
C237     C      0.755010000000     0.671690000000     0.068200000000    -0.016154   
C238     C      0.766470000000     0.696940000000     0.091480000000     0.0113283  
C239     C      0.797310000000     0.708320000000     0.082870000000     0.0107064  
C240     C      0.811630000000     0.735110000000     0.099070000000    -0.0651832  
C241     C      0.802080000000     0.777940000000     0.145360000000    -0.0169461  
C242     C      0.749810000000     0.709140000000     0.118750000000    -0.0659182  
C243     C      0.794150000000     0.748420000000     0.125510000000     0.0107577  
C244     C      0.764950000000     0.734580000000     0.136020000000     0.0111501  
C245     C      0.754940000000     0.671640000000     0.887870000000    -0.0160577  
C246     C      0.801960000000     0.777880000000     0.810660000000    -0.0169018  
C247     C      0.752430000000     0.751510000000     0.790620000000    -0.0161102  
C248     C      0.764850000000     0.734500000000     0.820010000000     0.0111187  
C249     C      0.794050000000     0.748340000000     0.830510000000     0.0107377  
C250     C      0.811540000000     0.735050000000     0.856950000000    -0.0651543  
C251     C      0.810350000000     0.689140000000     0.901230000000    -0.0166475  
C252     C      0.749720000000     0.709080000000     0.837300000000    -0.0658579  
C253     C      0.797230000000     0.708270000000     0.873170000000     0.0107175  
C254     C      0.766390000000     0.696890000000     0.864570000000     0.0112579  
C255     C      0.751690000000     0.450500000000     0.791050000000    -0.0161082  
C256     C      0.810010000000     0.513100000000     0.901320000000    -0.0165817  
C257     C      0.754640000000     0.530730000000     0.887990000000    -0.0161102  
C258     C      0.765960000000     0.505360000000     0.864770000000     0.0113045  
C259     C      0.796790000000     0.493920000000     0.873350000000     0.0106665  
C260     C      0.810980000000     0.467030000000     0.857200000000    -0.0651296  
C261     C      0.801200000000     0.424070000000     0.811070000000    -0.0168654  
C262     C      0.749190000000     0.493120000000     0.837580000000    -0.0659112  
C263     C      0.793400000000     0.453690000000     0.830850000000     0.0107153  
C264     C      0.764210000000     0.467570000000     0.820370000000     0.011129   
C265     C      0.682410000000     0.897640000000     0.145380000000    -0.0169039  
C266     C      0.576110000000     0.850660000000     0.068230000000    -0.0161562  
C267     C      0.593620000000     0.906050000000     0.054850000000    -0.0165198  
C268     C      0.612760000000     0.892940000000     0.082900000000     0.0106498  
C269     C      0.601370000000     0.862100000000     0.091510000000     0.0113358  
C270     C      0.613570000000     0.845420000000     0.118770000000    -0.0658935  
C271     C      0.656030000000     0.848120000000     0.165430000000    -0.0161121  
C272     C      0.639570000000     0.907230000000     0.099100000000    -0.0651206  
C273     C      0.639030000000     0.860540000000     0.136030000000     0.0111324  
C274     C      0.652870000000     0.889740000000     0.125540000000     0.0107227  
C275     C      0.417600000000     0.905850000000     0.054880000000    -0.0165508  
C276     C      0.355110000000     0.847710000000     0.165300000000    -0.0161388  
C277     C      0.328680000000     0.897200000000     0.145250000000    -0.0168165  
C278     C      0.358280000000     0.889370000000     0.125460000000     0.0107014  
C279     C      0.372160000000     0.860190000000     0.135950000000     0.011142   
C280     C      0.397670000000     0.845130000000     0.118720000000    -0.065896   
C281     C      0.435210000000     0.850490000000     0.068250000000    -0.0160971  
C282     C      0.371590000000     0.906910000000     0.099060000000    -0.0651274  
C283     C      0.409880000000     0.861850000000     0.091490000000     0.0113067  
C284     C      0.398440000000     0.892680000000     0.082890000000     0.0106751  
C285     C      0.417520000000     0.905800000000     0.901380000000    -0.0165473  
C286     C      0.354940000000     0.847570000000     0.791060000000    -0.016081   
C287     C      0.328520000000     0.897070000000     0.811090000000    -0.0168365  
C288     C      0.358130000000     0.889260000000     0.830870000000     0.010697   
C289     C      0.372010000000     0.860080000000     0.820380000000     0.0111089  
C290     C      0.397540000000     0.845040000000     0.837600000000    -0.0658274  
C291     C      0.435130000000     0.850440000000     0.888030000000    -0.0159964  
C292     C      0.371470000000     0.906820000000     0.857240000000    -0.0651077  
C293     C      0.409780000000     0.861780000000     0.864800000000     0.0112518  
C294     C      0.398340000000     0.892610000000     0.873400000000     0.0106677  
C295     C      0.593550000000     0.906020000000     0.901260000000    -0.0165019  
C296     C      0.655880000000     0.848080000000     0.790640000000    -0.0161666  
C297     C      0.682260000000     0.897610000000     0.810660000000    -0.0168698  
C298     C      0.652730000000     0.889710000000     0.830520000000     0.0106889  
C299     C      0.638880000000     0.860510000000     0.820040000000     0.011166   
C300     C      0.613450000000     0.845380000000     0.837330000000    -0.0659486  
C301     C      0.576030000000     0.850630000000     0.887910000000    -0.0160515  
C302     C      0.639450000000     0.907200000000     0.856960000000    -0.0650783  
C303     C      0.601280000000     0.862060000000     0.864600000000     0.0113149  
C304     C      0.612670000000     0.892900000000     0.873200000000     0.0106199  
C305     C      0.258390000000     0.751000000000     0.165280000000    -0.0160852  
C306     C      0.200090000000     0.688420000000     0.054990000000    -0.0166441  
C307     C      0.255460000000     0.670780000000     0.068330000000    -0.0160851  
C308     C      0.244140000000     0.696150000000     0.091550000000     0.011289   
C309     C      0.213310000000     0.707600000000     0.082970000000     0.0107327  
C310     C      0.199110000000     0.734480000000     0.099120000000    -0.0651892  
C311     C      0.208890000000     0.777430000000     0.145260000000    -0.0168145  
C312     C      0.260900000000     0.708390000000     0.118740000000    -0.0658937  
C313     C      0.216690000000     0.747820000000     0.125470000000     0.0107244  
C314     C      0.245880000000     0.733940000000     0.135950000000     0.0111182  
C315     C      0.199750000000     0.512390000000     0.055090000000    -0.0166371  
C316     C      0.257650000000     0.450030000000     0.165710000000    -0.0160246  
C317     C      0.208120000000     0.423670000000     0.145680000000    -0.0168767  
C318     C      0.216030000000     0.453200000000     0.125820000000     0.0107626  
C319     C      0.245240000000     0.467040000000     0.136320000000     0.0110916  
C320     C      0.260370000000     0.492460000000     0.119030000000    -0.0658619  
C321     C      0.255160000000     0.529880000000     0.068450000000    -0.0160889  
C322     C      0.198550000000     0.466480000000     0.099380000000    -0.0651717  
C323     C      0.243710000000     0.504640000000     0.091750000000     0.0112852  
C324     C      0.212860000000     0.493260000000     0.083150000000     0.010716   
C325     C      0.257580000000     0.449920000000     0.790910000000    -0.0160718  
C326     C      0.199710000000     0.512330000000     0.901510000000    -0.0166947  
C327     C      0.255110000000     0.529820000000     0.888120000000    -0.0160851  
C328     C      0.243660000000     0.504570000000     0.864840000000     0.0112647  
C329     C      0.212810000000     0.493190000000     0.873450000000     0.0107311  
C330     C      0.198500000000     0.466390000000     0.857260000000    -0.0651924  
C331     C      0.208060000000     0.423560000000     0.810970000000    -0.0168521  
C332     C      0.260320000000     0.492360000000     0.837570000000    -0.06589    
C333     C      0.215980000000     0.453090000000     0.830820000000     0.0107223  
C334     C      0.245180000000     0.466920000000     0.820310000000     0.0111219  
C335     C      0.208740000000     0.777290000000     0.811140000000    -0.0168495  
C336     C      0.255390000000     0.670720000000     0.888130000000    -0.0160423  
C337     C      0.200030000000     0.688350000000     0.901490000000    -0.0166347  
C338     C      0.213220000000     0.707510000000     0.873480000000     0.0106992  
C339     C      0.244050000000     0.696060000000     0.864880000000     0.0112731  
C340     C      0.260780000000     0.708280000000     0.837670000000    -0.0659066  
C341     C      0.258240000000     0.750850000000     0.791100000000    -0.0162168  
C342     C      0.199010000000     0.734380000000     0.857320000000    -0.0651764  
C343     C      0.245750000000     0.733810000000     0.820450000000     0.0111627  
C344     C      0.216560000000     0.747690000000     0.830940000000     0.0107154  
C345     C      0.354190000000     0.353470000000     0.165680000000    -0.0160508  
C346     C      0.416550000000     0.295510000000     0.055090000000    -0.016576   
C347     C      0.434070000000     0.350910000000     0.068440000000    -0.0161697  
C348     C      0.408820000000     0.339480000000     0.091740000000     0.0113336  
C349     C      0.397430000000     0.308630000000     0.083150000000     0.0106738  
C350     C      0.370630000000     0.294350000000     0.099370000000    -0.0651332  
C351     C      0.327810000000     0.303950000000     0.145660000000    -0.0168885  
C352     C      0.396630000000     0.356170000000     0.119000000000    -0.0659095  
C353     C      0.357340000000     0.311850000000     0.125800000000     0.0107365  
C354     C      0.371190000000     0.341050000000     0.136280000000     0.011115   
C355     C      0.655200000000     0.353980000000     0.165260000000    -0.0160548  
C356     C      0.592590000000     0.295730000000     0.054970000000    -0.0165626  
C357     C      0.574980000000     0.351100000000     0.068320000000    -0.0161642  
C358     C      0.600340000000     0.339760000000     0.091540000000     0.0113241  
C359     C      0.611780000000     0.308930000000     0.082950000000     0.0106893  
C360     C      0.638660000000     0.294720000000     0.099090000000    -0.0651624  
C361     C      0.681620000000     0.304480000000     0.145230000000    -0.0168457  
C362     C      0.612590000000     0.356510000000     0.118730000000    -0.0658938  
C363     C      0.652010000000     0.312300000000     0.125450000000     0.0107196  
C364     C      0.638130000000     0.341480000000     0.135940000000     0.0111178  
C365     C      0.592500000000     0.295660000000     0.901470000000    -0.0166132  
C366     C      0.654970000000     0.353790000000     0.791040000000    -0.0161434  
C367     C      0.681400000000     0.304300000000     0.811090000000    -0.0169132  
C368     C      0.651810000000     0.312130000000     0.830880000000     0.0107575  
C369     C      0.637930000000     0.341310000000     0.820380000000     0.0111257  
C370     C      0.612420000000     0.356370000000     0.837620000000    -0.0659     
C371     C      0.574890000000     0.351020000000     0.888100000000    -0.0160475  
C372     C      0.638510000000     0.294590000000     0.857280000000    -0.0652059  
C373     C      0.600210000000     0.339660000000     0.864850000000     0.0112777  
C374     C      0.611650000000     0.308830000000     0.873460000000     0.0106959  
C375     C      0.416490000000     0.295460000000     0.901500000000    -0.0165671  
C376     C      0.354110000000     0.353370000000     0.790890000000    -0.0161693  
C377     C      0.327730000000     0.303850000000     0.810940000000    -0.016832   
C378     C      0.357270000000     0.311750000000     0.830790000000     0.0106883  
C379     C      0.371120000000     0.340950000000     0.820280000000     0.0111588  
C380     C      0.396560000000     0.356080000000     0.837560000000    -0.065921   
C381     C      0.434000000000     0.350850000000     0.888120000000    -0.0160325  
C382     C      0.370560000000     0.294270000000     0.857230000000    -0.0651017  
C383     C      0.408740000000     0.339410000000     0.864840000000     0.0112911  
C384     C      0.397350000000     0.308570000000     0.873440000000     0.0106584  
H1       H      0.051630000000     0.344070000000     0.581140000000     0.0368051  
H2       H      0.078290000000     0.427780000000     0.562350000000     0.0411073  
H3       H      0.148660000000     0.430010000000     0.591540000000     0.0415275  
H4       H      0.102800000000     0.321280000000     0.626090000000     0.0409501  
H5       H      0.138500000000     0.348170000000     0.687070000000     0.0404299  
H6       H      0.203870000000     0.397220000000     0.630070000000     0.0416016  
H7       H      0.083460000000     0.328420000000     0.554680000000     0.0412428  
H8       H      0.108670000000     0.412200000000     0.534200000000     0.0370193  
H9       H      0.178950000000     0.421230000000     0.657630000000     0.0372373  
H10      H      0.163730000000     0.321920000000     0.661870000000     0.037574   
H11      H      0.083530000000     0.328460000000     0.401890000000     0.0412151  
H12      H      0.108730000000     0.412230000000     0.422410000000     0.0370385  
H13      H      0.148750000000     0.430060000000     0.365090000000     0.0415604  
H14      H      0.102900000000     0.321350000000     0.330490000000     0.0409331  
H15      H      0.163840000000     0.322000000000     0.294730000000     0.0375625  
H16      H      0.179060000000     0.421300000000     0.299010000000     0.037268   
H17      H      0.051710000000     0.344120000000     0.375420000000     0.0367756  
H18      H      0.078370000000     0.427820000000     0.394260000000     0.04113    
H19      H      0.203970000000     0.397280000000     0.326570000000     0.0416249  
H20      H      0.138620000000     0.348260000000     0.269530000000     0.0404267  
H21      H      0.830480000000     0.421870000000     0.298580000000     0.037234   
H22      H      0.870860000000     0.348800000000     0.269140000000     0.0404559  
H23      H      0.906310000000     0.321700000000     0.330210000000     0.0409661  
H24      H      0.860580000000     0.430470000000     0.364790000000     0.0415671  
H25      H      0.930840000000     0.428020000000     0.394210000000     0.0411665  
H26      H      0.925400000000     0.328670000000     0.401710000000     0.0412605  
H27      H      0.805430000000     0.397880000000     0.326040000000     0.0416067  
H28      H      0.845530000000     0.322540000000     0.294220000000     0.0375881  
H29      H      0.957370000000     0.344270000000     0.375370000000     0.0368459  
H30      H      0.900340000000     0.412470000000     0.422230000000     0.0370362  
H31      H      0.930740000000     0.427960000000     0.562280000000     0.0411615  
H32      H      0.957270000000     0.344200000000     0.581080000000     0.0368156  
H33      H      0.906150000000     0.321570000000     0.626150000000     0.0409699  
H34      H      0.860430000000     0.430350000000     0.591600000000     0.0415477  
H35      H      0.830250000000     0.421690000000     0.657760000000     0.0372152  
H36      H      0.845320000000     0.322360000000     0.662070000000     0.0376093  
H37      H      0.900280000000     0.412420000000     0.534200000000     0.0370297  
H38      H      0.925340000000     0.328610000000     0.554690000000     0.0412221  
H39      H      0.870630000000     0.348610000000     0.687190000000     0.0404583  
H40      H      0.805230000000     0.397700000000     0.630260000000     0.041595   
H41      H      0.683840000000     0.275220000000     0.657680000000     0.0372487  
H42      H      0.756910000000     0.234860000000     0.687150000000     0.0404477  
H43      H      0.784050000000     0.199420000000     0.626100000000     0.0409307  
H44      H      0.675270000000     0.245100000000     0.591470000000     0.0415709  
H45      H      0.677750000000     0.174840000000     0.562070000000     0.0411571  
H46      H      0.777100000000     0.180310000000     0.554590000000     0.0412541  
H47      H      0.707840000000     0.300270000000     0.630230000000     0.0416334  
H48      H      0.783170000000     0.260200000000     0.662080000000     0.0376041  
H49      H      0.761510000000     0.148350000000     0.580940000000     0.0368243  
H50      H      0.693300000000     0.205340000000     0.534050000000     0.0370277  
H51      H      0.777180000000     0.180350000000     0.401620000000     0.0412358  
H52      H      0.693360000000     0.205380000000     0.422110000000     0.0370102  
H53      H      0.675400000000     0.245230000000     0.364720000000     0.041546   
H54      H      0.784200000000     0.199550000000     0.330150000000     0.0409736  
H55      H      0.783380000000     0.260390000000     0.294230000000     0.0376008  
H56      H      0.684050000000     0.275420000000     0.298560000000     0.0372484  
H57      H      0.761600000000     0.148430000000     0.375220000000     0.0368115  
H58      H      0.677830000000     0.174920000000     0.394030000000     0.0411294  
H59      H      0.708030000000     0.300440000000     0.326050000000     0.0416202  
H60      H      0.757140000000     0.235060000000     0.269120000000     0.0404577  
H61      H      0.784040000000     0.941950000000     0.294490000000     0.0375699  
H62      H      0.708740000000     0.901800000000     0.326270000000     0.041611   
H63      H      0.675920000000     0.957000000000     0.364770000000     0.0415768  
H64      H      0.784640000000     0.002890000000     0.330260000000     0.0409445  
H65      H      0.777470000000     0.022230000000     0.401660000000     0.0412314  
H66      H      0.678120000000     0.027360000000     0.393950000000     0.0411501  
H67      H      0.757790000000     0.967160000000     0.269260000000     0.0404373  
H68      H      0.684730000000     0.926700000000     0.298680000000     0.0372605  
H69      H      0.693690000000     0.996990000000     0.422110000000     0.0370629  
H70      H      0.761810000000     0.054060000000     0.375190000000     0.0367894  
H71      H      0.757630000000     0.967120000000     0.686820000000     0.0404379  
H72      H      0.684590000000     0.926660000000     0.657360000000     0.037241   
H73      H      0.675820000000     0.956960000000     0.591250000000     0.0415447  
H74      H      0.784530000000     0.002840000000     0.625840000000     0.0409452  
H75      H      0.761740000000     0.054010000000     0.580890000000     0.0368083  
H76      H      0.693650000000     0.996950000000     0.533920000000     0.0370423  
H77      H      0.783900000000     0.941910000000     0.661610000000     0.0375904  
H78      H      0.708610000000     0.901760000000     0.629780000000     0.041595   
H79      H      0.678050000000     0.027320000000     0.562070000000     0.0411358  
H80      H      0.777410000000     0.022180000000     0.554430000000     0.0412343  
H81      H      0.179830000000     0.779810000000     0.298570000000     0.0372299  
H82      H      0.139450000000     0.852890000000     0.269140000000     0.0404333  
H83      H      0.103950000000     0.879940000000     0.330190000000     0.0409385  
H84      H      0.149660000000     0.771150000000     0.364750000000     0.0415495  
H85      H      0.079370000000     0.773560000000     0.394090000000     0.0411519  
H86      H      0.084770000000     0.872910000000     0.401670000000     0.0412273  
H87      H      0.204850000000     0.803790000000     0.326070000000     0.0416132  
H88      H      0.164770000000     0.879140000000     0.294260000000     0.037583   
H89      H      0.052840000000     0.857320000000     0.375280000000     0.0368054  
H90      H      0.109830000000     0.789100000000     0.422160000000     0.0370279  
H91      H      0.204690000000     0.803660000000     0.630300000000     0.0416177  
H92      H      0.164600000000     0.879000000000     0.662120000000     0.037586   
H93      H      0.103810000000     0.879840000000     0.626140000000     0.0409258  
H94      H      0.149540000000     0.771060000000     0.591560000000     0.0415326  
H95      H      0.109770000000     0.789060000000     0.534120000000     0.0370253  
H96      H      0.052750000000     0.857260000000     0.580990000000     0.0368125  
H97      H      0.179650000000     0.779670000000     0.657770000000     0.0372283  
H98      H      0.139260000000     0.852730000000     0.687210000000     0.0404324  
H99      H      0.084710000000     0.872860000000     0.554640000000     0.0412386  
H100     H      0.079270000000     0.773510000000     0.562150000000     0.0411458  
H101     H      0.846270000000     0.879540000000     0.661610000000     0.0375867  
H102     H      0.806130000000     0.804260000000     0.629770000000     0.0416019  
H103     H      0.861350000000     0.771480000000     0.591260000000     0.0415548  
H104     H      0.907210000000     0.880180000000     0.625860000000     0.0409797  
H105     H      0.926580000000     0.873070000000     0.554460000000     0.0412368  
H106     H      0.931730000000     0.773710000000     0.562100000000     0.0411308  
H107     H      0.871470000000     0.853280000000     0.686820000000     0.0404469  
H108     H      0.831030000000     0.780240000000     0.657340000000     0.0372406  
H109     H      0.901380000000     0.789300000000     0.533940000000     0.0370371  
H110     H      0.958400000000     0.857410000000     0.580940000000     0.0368007  
H111     H      0.926650000000     0.873100000000     0.401670000000     0.0412729  
H112     H      0.901440000000     0.789320000000     0.422150000000     0.037036   
H113     H      0.861470000000     0.771510000000     0.364800000000     0.0415753  
H114     H      0.907320000000     0.880230000000     0.330260000000     0.0409766  
H115     H      0.846400000000     0.879580000000     0.294460000000     0.0376132  
H116     H      0.831190000000     0.780280000000     0.298710000000     0.0372657  
H117     H      0.958490000000     0.857450000000     0.375220000000     0.0368503  
H118     H      0.931830000000     0.773740000000     0.394010000000     0.0411337  
H119     H      0.806260000000     0.804290000000     0.326270000000     0.0416156  
H120     H      0.871630000000     0.853330000000     0.269270000000     0.0404737  
H121     H      0.325510000000     0.274880000000     0.298970000000     0.0372371  
H122     H      0.252460000000     0.234430000000     0.269510000000     0.0404257  
H123     H      0.225570000000     0.198700000000     0.330480000000     0.0409394  
H124     H      0.334280000000     0.244580000000     0.365060000000     0.0415626  
H125     H      0.332060000000     0.174210000000     0.394240000000     0.0411494  
H126     H      0.232690000000     0.179350000000     0.401890000000     0.0412278  
H127     H      0.301480000000     0.299780000000     0.326540000000     0.041601   
H128     H      0.226200000000     0.259640000000     0.294720000000     0.0375634  
H129     H      0.248360000000     0.147530000000     0.375420000000     0.0368108  
H130     H      0.316460000000     0.204570000000     0.422390000000     0.0370609  
H131     H      0.301390000000     0.299700000000     0.630060000000     0.0416072  
H132     H      0.226100000000     0.259560000000     0.661840000000     0.0376094  
H133     H      0.225480000000     0.198630000000     0.626060000000     0.040965   
H134     H      0.334210000000     0.244510000000     0.591550000000     0.0415332  
H135     H      0.316420000000     0.204530000000     0.534200000000     0.0370295  
H136     H      0.248300000000     0.147460000000     0.581120000000     0.0368027  
H137     H      0.325410000000     0.274800000000     0.657640000000     0.037238   
H138     H      0.252340000000     0.234340000000     0.687060000000     0.0404633  
H139     H      0.232640000000     0.179290000000     0.554650000000     0.04122    
H140     H      0.332000000000     0.174160000000     0.562350000000     0.0411328  
H141     H      0.316750000000     0.996150000000     0.534200000000     0.0370478  
H142     H      0.232930000000     0.021170000000     0.554700000000     0.041229   
H143     H      0.225920000000     0.001980000000     0.626170000000     0.0409641  
H144     H      0.334720000000     0.956310000000     0.591600000000     0.0415476  
H145     H      0.302090000000     0.901100000000     0.630270000000     0.0416394  
H146     H      0.252990000000     0.966480000000     0.687200000000     0.0404686  
H147     H      0.332290000000     0.026610000000     0.562280000000     0.0411437  
H148     H      0.248510000000     0.053100000000     0.581090000000     0.0368039  
H149     H      0.226740000000     0.941160000000     0.662100000000     0.0376089  
H150     H      0.326070000000     0.926120000000     0.657760000000     0.0372633  
H151     H      0.233000000000     0.021220000000     0.401720000000     0.0412443  
H152     H      0.316800000000     0.996190000000     0.422260000000     0.0370436  
H153     H      0.334820000000     0.956400000000     0.364850000000     0.0415454  
H154     H      0.226040000000     0.002080000000     0.330230000000     0.0409593  
H155     H      0.226900000000     0.941290000000     0.294260000000     0.0375984  
H156     H      0.326240000000     0.926280000000     0.298660000000     0.0372652  
H157     H      0.248590000000     0.053170000000     0.375370000000     0.0368222  
H158     H      0.332350000000     0.026680000000     0.394230000000     0.0411582  
H159     H      0.302240000000     0.901220000000     0.326110000000     0.0416457  
H160     H      0.253170000000     0.966640000000     0.269190000000     0.0404586  
H161     H      0.816580000000     0.496990000000     0.033970000000     0.0370685  
H162     H      0.732820000000     0.522240000000     0.054470000000     0.0412587  
H163     H      0.725690000000     0.502890000000     0.125880000000     0.0409446  
H164     H      0.834400000000     0.457000000000     0.091300000000     0.0415426  
H165     H      0.801600000000     0.401790000000     0.129820000000     0.0415934  
H166     H      0.752580000000     0.467170000000     0.186840000000     0.04045    
H167     H      0.832180000000     0.527360000000     0.062110000000     0.0411522  
H168     H      0.748500000000     0.554060000000     0.080930000000     0.0368254  
H169     H      0.726320000000     0.441950000000     0.161650000000     0.0376102  
H170     H      0.825620000000     0.426700000000     0.157390000000     0.0372417  
H171     H      0.733120000000     0.680360000000     0.054520000000     0.0412834  
H172     H      0.816920000000     0.705380000000     0.033960000000     0.0370676  
H173     H      0.834910000000     0.745230000000     0.091350000000     0.0415901  
H174     H      0.726140000000     0.699560000000     0.125990000000     0.040972   
H175     H      0.726980000000     0.760390000000     0.161900000000     0.0376271  
H176     H      0.826310000000     0.775420000000     0.157510000000     0.0372672  
H177     H      0.748710000000     0.648430000000     0.080900000000     0.0368406  
H178     H      0.832470000000     0.674920000000     0.062030000000     0.0411725  
H179     H      0.802310000000     0.800440000000     0.130040000000     0.0416474  
H180     H      0.753240000000     0.735060000000     0.187000000000     0.0404722  
H181     H      0.726850000000     0.760310000000     0.794170000000     0.0375884  
H182     H      0.802200000000     0.800370000000     0.825990000000     0.0416194  
H183     H      0.834830000000     0.745180000000     0.864660000000     0.0415368  
H184     H      0.726040000000     0.699490000000     0.830080000000     0.0409315  
H185     H      0.733050000000     0.680310000000     0.901560000000     0.0412181  
H186     H      0.832410000000     0.674870000000     0.893980000000     0.0411457  
H187     H      0.753100000000     0.735000000000     0.769040000000     0.0404416  
H188     H      0.826180000000     0.775370000000     0.798490000000     0.0372422  
H189     H      0.816870000000     0.705340000000     0.922060000000     0.0370269  
H190     H      0.748640000000     0.648380000000     0.875170000000     0.0368055  
H191     H      0.732740000000     0.522200000000     0.901740000000     0.0412452  
H192     H      0.816520000000     0.496950000000     0.922190000000     0.0370275  
H193     H      0.834260000000     0.456870000000     0.864900000000     0.0415315  
H194     H      0.725530000000     0.502750000000     0.830370000000     0.0409574  
H195     H      0.726110000000     0.441760000000     0.794680000000     0.0375822  
H196     H      0.825410000000     0.426490000000     0.798860000000     0.0372525  
H197     H      0.748410000000     0.553980000000     0.875220000000     0.0368097  
H198     H      0.832100000000     0.527270000000     0.893990000000     0.0411147  
H199     H      0.801400000000     0.401620000000     0.826470000000     0.041586   
H200     H      0.752340000000     0.466950000000     0.769420000000     0.0404508  
H201     H      0.609820000000     0.912570000000     0.034010000000     0.0370348  
H202     H      0.584760000000     0.828770000000     0.054540000000     0.0412849  
H203     H      0.603970000000     0.821750000000     0.126000000000     0.040954   
H204     H      0.649690000000     0.930520000000     0.091390000000     0.0415554  
H205     H      0.704900000000     0.897870000000     0.130050000000     0.0416413  
H206     H      0.639510000000     0.848810000000     0.187010000000     0.0404493  
H207     H      0.579370000000     0.928120000000     0.062090000000     0.0411316  
H208     H      0.552850000000     0.844370000000     0.080940000000     0.0368389  
H209     H      0.664820000000     0.822540000000     0.161900000000     0.0375978  
H210     H      0.679890000000     0.921870000000     0.157550000000     0.037257   
H211     H      0.306220000000     0.897400000000     0.129870000000     0.041607   
H212     H      0.346360000000     0.822120000000     0.161700000000     0.0376048  
H213     H      0.407300000000     0.821470000000     0.125940000000     0.0409578  
H214     H      0.361430000000     0.930180000000     0.091340000000     0.0415548  
H215     H      0.401420000000     0.912350000000     0.034020000000     0.0370525  
H216     H      0.458470000000     0.844250000000     0.080990000000     0.0368205  
H217     H      0.331120000000     0.921430000000     0.157440000000     0.0372359  
H218     H      0.371570000000     0.848380000000     0.186910000000     0.0404713  
H219     H      0.426640000000     0.828580000000     0.054530000000     0.0412603  
H220     H      0.431800000000     0.927940000000     0.062160000000     0.0411361  
H221     H      0.330940000000     0.921290000000     0.798890000000     0.0372327  
H222     H      0.371390000000     0.848230000000     0.769430000000     0.040456   
H223     H      0.407170000000     0.821370000000     0.830380000000     0.0409113  
H224     H      0.361310000000     0.930100000000     0.864950000000     0.0415129  
H225     H      0.431710000000     0.927890000000     0.894070000000     0.0411078  
H226     H      0.426580000000     0.828530000000     0.901770000000     0.0411968  
H227     H      0.306070000000     0.897270000000     0.826490000000     0.0415789  
H228     H      0.346200000000     0.821990000000     0.794670000000     0.0375911  
H229     H      0.458380000000     0.844190000000     0.875270000000     0.0367874  
H230     H      0.401360000000     0.912310000000     0.922250000000     0.0369906  
H231     H      0.704760000000     0.897840000000     0.825990000000     0.0416132  
H232     H      0.664670000000     0.822510000000     0.794190000000     0.0376043  
H233     H      0.603860000000     0.821710000000     0.830120000000     0.0409776  
H234     H      0.649590000000     0.930490000000     0.864670000000     0.0415023  
H235     H      0.609770000000     0.912540000000     0.922080000000     0.0369762  
H236     H      0.552760000000     0.844330000000     0.875220000000     0.0368018  
H237     H      0.679750000000     0.921830000000     0.798500000000     0.0372388  
H238     H      0.639360000000     0.848760000000     0.769060000000     0.0404558  
H239     H      0.584690000000     0.828740000000     0.901600000000     0.0412145  
H240     H      0.579290000000     0.928090000000     0.894020000000     0.0411129  
H241     H      0.261700000000     0.647540000000     0.081090000000     0.0368193  
H242     H      0.178000000000     0.674240000000     0.062310000000     0.041143   
H243     H      0.175840000000     0.744640000000     0.091420000000     0.0415794  
H244     H      0.284560000000     0.698760000000     0.125950000000     0.040963   
H245     H      0.257740000000     0.734540000000     0.186900000000     0.0404454  
H246     H      0.208690000000     0.799880000000     0.129860000000     0.0415921  
H247     H      0.277360000000     0.679330000000     0.054580000000     0.04127    
H248     H      0.193580000000     0.704570000000     0.034120000000     0.0370788  
H249     H      0.184670000000     0.775010000000     0.157460000000     0.0372337  
H250     H      0.283980000000     0.759740000000     0.161660000000     0.0375869  
H251     H      0.207880000000     0.401170000000     0.130350000000     0.0416233  
H252     H      0.283230000000     0.441240000000     0.162170000000     0.0375706  
H253     H      0.284050000000     0.502050000000     0.126240000000     0.0409483  
H254     H      0.175260000000     0.456360000000     0.091670000000     0.0415624  
H255     H      0.193230000000     0.496180000000     0.034260000000     0.0370606  
H256     H      0.261460000000     0.553150000000     0.081140000000     0.0368229  
H257     H      0.183890000000     0.426190000000     0.157840000000     0.0372311  
H258     H      0.256980000000     0.466550000000     0.187290000000     0.0404302  
H259     H      0.277050000000     0.521210000000     0.054760000000     0.0412564  
H260     H      0.177700000000     0.526660000000     0.062320000000     0.0411706  
H261     H      0.261410000000     0.553080000000     0.875410000000     0.0368151  
H262     H      0.177650000000     0.526590000000     0.894280000000     0.0411572  
H263     H      0.175210000000     0.456280000000     0.864970000000     0.0415514  
H264     H      0.283990000000     0.501950000000     0.830340000000     0.0409518  
H265     H      0.256900000000     0.466440000000     0.769330000000     0.040439   
H266     H      0.207830000000     0.401060000000     0.826300000000     0.0415828  
H267     H      0.277000000000     0.521160000000     0.901800000000     0.0412354  
H268     H      0.193200000000     0.496140000000     0.922350000000     0.0370315  
H269     H      0.183820000000     0.426080000000     0.798820000000     0.0372217  
H270     H      0.283160000000     0.441110000000     0.794430000000     0.0375761  
H271     H      0.177940000000     0.674170000000     0.894200000000     0.0411325  
H272     H      0.261620000000     0.647460000000     0.875380000000     0.0367956  
H273     H      0.284440000000     0.698650000000     0.830450000000     0.0409522  
H274     H      0.175740000000     0.744540000000     0.865030000000     0.0415436  
H275     H      0.184520000000     0.774850000000     0.798950000000     0.0372408  
H276     H      0.283820000000     0.759600000000     0.794700000000     0.0376293  
H277     H      0.193540000000     0.704530000000     0.922350000000     0.0370246  
H278     H      0.277300000000     0.679280000000     0.901850000000     0.0412199  
H279     H      0.257560000000     0.734380000000     0.769490000000     0.0404797  
H280     H      0.208540000000     0.799750000000     0.826520000000     0.0415957  
H281     H      0.457340000000     0.357200000000     0.081130000000     0.0368406  
H282     H      0.430810000000     0.273450000000     0.062340000000     0.041158   
H283     H      0.360500000000     0.271060000000     0.091670000000     0.0415552  
H284     H      0.406230000000     0.379840000000     0.126210000000     0.040971   
H285     H      0.370720000000     0.352800000000     0.187260000000     0.040433   
H286     H      0.305320000000     0.303710000000     0.130340000000     0.0416395  
H287     H      0.425420000000     0.372800000000     0.054750000000     0.0412829  
H288     H      0.400340000000     0.288990000000     0.034260000000     0.0370628  
H289     H      0.330330000000     0.279720000000     0.157830000000     0.0372476  
H290     H      0.345400000000     0.379050000000     0.162140000000     0.0375752  
H291     H      0.583530000000     0.373000000000     0.054570000000     0.0412881  
H292     H      0.608740000000     0.289220000000     0.034090000000     0.0370571  
H293     H      0.648820000000     0.271450000000     0.091390000000     0.0415761  
H294     H      0.602960000000     0.380170000000     0.125950000000     0.0409556  
H295     H      0.663950000000     0.379570000000     0.161650000000     0.0375762  
H296     H      0.679200000000     0.280260000000     0.157430000000     0.0372388  
H297     H      0.551740000000     0.357340000000     0.081080000000     0.0368471  
H298     H      0.578400000000     0.273640000000     0.062290000000     0.0411339  
H299     H      0.704070000000     0.304280000000     0.129830000000     0.0415992  
H300     H      0.638750000000     0.353320000000     0.186890000000     0.0404433  
H301     H      0.678960000000     0.280080000000     0.798900000000     0.0372568  
H302     H      0.638510000000     0.353120000000     0.769420000000     0.0404559  
H303     H      0.602800000000     0.380030000000     0.830400000000     0.0409565  
H304     H      0.648670000000     0.271330000000     0.865000000000     0.041568   
H305     H      0.578300000000     0.273570000000     0.894200000000     0.04113    
H306     H      0.583460000000     0.372930000000     0.901810000000     0.0412229  
H307     H      0.703860000000     0.304100000000     0.826460000000     0.0416181  
H308     H      0.663720000000     0.379380000000     0.794620000000     0.0375975  
H309     H      0.551630000000     0.357260000000     0.875360000000     0.0368069  
H310     H      0.608680000000     0.289160000000     0.922330000000     0.0370055  
H311     H      0.305240000000     0.303620000000     0.826280000000     0.0415822  
H312     H      0.345320000000     0.378940000000     0.794430000000     0.0376113  
H313     H      0.406150000000     0.379750000000     0.830340000000     0.0409645  
H314     H      0.360430000000     0.270980000000     0.864950000000     0.0415093  
H315     H      0.400280000000     0.288950000000     0.922340000000     0.0369913  
H316     H      0.457260000000     0.357150000000     0.875420000000     0.0368066  
H317     H      0.330240000000     0.279620000000     0.798780000000     0.0372226  
H318     H      0.370620000000     0.352690000000     0.769310000000     0.0404635  
H319     H      0.425340000000     0.372750000000     0.901810000000     0.0412043  
H320     H      0.430740000000     0.273390000000     0.894270000000     0.0411291  
N1       N      0.182370000000     0.370390000000     0.669540000000    -0.181193   
N2       N      0.070560000000     0.378470000000     0.546610000000    -0.181339   
N3       N      0.182480000000     0.370470000000     0.287080000000    -0.181263   
N4       N      0.070620000000     0.378500000000     0.409970000000    -0.181404   
N5       N      0.938410000000     0.378670000000     0.409890000000    -0.181378   
N6       N      0.826990000000     0.371060000000     0.286590000000    -0.181216   
N7       N      0.826760000000     0.370860000000     0.669710000000    -0.181185   
N8       N      0.938350000000     0.378620000000     0.546570000000    -0.181353   
N9       N      0.727110000000     0.167280000000     0.546410000000    -0.181295   
N10      N      0.734650000000     0.278730000000     0.669690000000    -0.181206   
N11      N      0.734870000000     0.278920000000     0.286590000000    -0.181195   
N12      N      0.727170000000     0.167330000000     0.409740000000    -0.181382   
N13      N      0.727420000000     0.035110000000     0.409710000000    -0.181341   
N14      N      0.735580000000     0.923290000000     0.286800000000    -0.181266   
N15      N      0.727360000000     0.035070000000     0.546350000000    -0.1813     
N16      N      0.735430000000     0.923250000000     0.669260000000    -0.181228   
N17      N      0.071760000000     0.822900000000     0.409790000000    -0.181306   
N18      N      0.183320000000     0.830630000000     0.286620000000    -0.181207   
N19      N      0.071700000000     0.822860000000     0.546470000000    -0.18129    
N20      N      0.183140000000     0.830480000000     0.669750000000    -0.181169   
N21      N      0.939480000000     0.823020000000     0.546380000000    -0.181407   
N22      N      0.827610000000     0.831080000000     0.669250000000    -0.181214   
N23      N      0.827760000000     0.831110000000     0.286800000000    -0.181201   
N24      N      0.939550000000     0.823050000000     0.409750000000    -0.181275   
N25      N      0.282740000000     0.166460000000     0.409960000000    -0.18134    
N26      N      0.274660000000     0.278290000000     0.287060000000    -0.181193   
N27      N      0.282700000000     0.166410000000     0.546600000000    -0.181294   
N28      N      0.274560000000     0.278210000000     0.669530000000    -0.18122    
N29      N      0.275250000000     0.922620000000     0.669730000000    -0.181158   
N30      N      0.282940000000     0.034200000000     0.546570000000    -0.18137    
N31      N      0.275430000000     0.922770000000     0.286650000000    -0.181031   
N32      N      0.282990000000     0.034250000000     0.409900000000    -0.181402   
N33      N      0.774780000000     0.423290000000     0.169300000000    -0.181242   
N34      N      0.782870000000     0.535120000000     0.046390000000    -0.181328   
N35      N      0.775500000000     0.778920000000     0.169510000000    -0.181117   
N36      N      0.783120000000     0.667330000000     0.046360000000    -0.181279   
N37      N      0.783060000000     0.667290000000     0.909690000000    -0.181297   
N38      N      0.775360000000     0.778860000000     0.786540000000    -0.181157   
N39      N      0.774560000000     0.423100000000     0.786990000000    -0.181183   
N40      N      0.782810000000     0.535060000000     0.909760000000    -0.181351   
N41      N      0.683380000000     0.871050000000     0.169520000000    -0.181141   
N42      N      0.571760000000     0.878780000000     0.046400000000    -0.181291   
N43      N      0.439540000000     0.878630000000     0.046440000000    -0.181394   
N44      N      0.327710000000     0.870590000000     0.169360000000    -0.18119    
N45      N      0.439470000000     0.878590000000     0.909810000000    -0.181369   
N46      N      0.327540000000     0.870440000000     0.787000000000    -0.181236   
N47      N      0.571690000000     0.878750000000     0.909730000000    -0.18143    
N48      N      0.683230000000     0.871010000000     0.786540000000    -0.18116    
N49      N      0.235520000000     0.778400000000     0.169340000000    -0.181118   
N50      N      0.227300000000     0.666460000000     0.046550000000    -0.181379   
N51      N      0.227040000000     0.534230000000     0.046620000000    -0.181341   
N52      N      0.234720000000     0.422690000000     0.169810000000    -0.181239   
N53      N      0.234640000000     0.422580000000     0.786820000000    -0.181231   
N54      N      0.227000000000     0.534190000000     0.909950000000    -0.181291   
N55      N      0.235360000000     0.778260000000     0.787040000000    -0.181178   
N56      N      0.227250000000     0.666410000000     0.909920000000    -0.181228   
N57      N      0.326850000000     0.330540000000     0.169790000000    -0.181131   
N58      N      0.438410000000     0.322780000000     0.046620000000    -0.181268   
N59      N      0.682600000000     0.331110000000     0.169320000000    -0.18121    
N60      N      0.570640000000     0.322940000000     0.046540000000    -0.181224   
N61      N      0.570570000000     0.322890000000     0.909910000000    -0.181343   
N62      N      0.682370000000     0.330910000000     0.786980000000    -0.181136   
N63      N      0.438350000000     0.322740000000     0.909950000000    -0.181355   
N64      N      0.326760000000     0.330440000000     0.786810000000    -0.181178   
O1       O      0.471170000000     0.294750000000     0.945670000000    -0.550591   
O2       O      0.537860000000     0.294850000000     0.010860000000    -0.550687   
O3       O      0.471200000000     0.294770000000     0.010890000000    -0.550562   
O4       O      0.537820000000     0.294830000000     0.945640000000    -0.550946   
O5       O      0.536830000000     0.349670000000     0.945150000000    -0.563556   
O6       O      0.472070000000     0.349620000000     0.011340000000    -0.563526   
O7       O      0.536860000000     0.349700000000     0.011310000000    -0.563575   
O8       O      0.472040000000     0.349600000000     0.945190000000    -0.563365   
O9       O      0.199060000000     0.567050000000     0.010890000000    -0.550782   
O10      O      0.199160000000     0.633680000000     0.945650000000    -0.550763   
O11      O      0.199040000000     0.567020000000     0.945680000000    -0.550876   
O12      O      0.199190000000     0.633700000000     0.010870000000    -0.550729   
O13      O      0.254030000000     0.632670000000     0.011320000000    -0.563444   
O14      O      0.253890000000     0.567850000000     0.945190000000    -0.563455   
O15      O      0.254010000000     0.632640000000     0.945170000000    -0.56347    
O16      O      0.253900000000     0.567880000000     0.011350000000    -0.563677   
O17      O      0.538900000000     0.906750000000     0.945460000000    -0.550886   
O18      O      0.472280000000     0.906690000000     0.010710000000    -0.550788   
O19      O      0.538930000000     0.906770000000     0.010680000000    -0.550742   
O20      O      0.472250000000     0.906670000000     0.945500000000    -0.550902   
O21      O      0.473250000000     0.851830000000     0.945040000000    -0.563637   
O22      O      0.538070000000     0.851920000000     0.011170000000    -0.563358   
O23      O      0.473280000000     0.851850000000     0.011200000000    -0.563517   
O24      O      0.538040000000     0.851910000000     0.945010000000    -0.563697   
O25      O      0.756110000000     0.568880000000     0.011150000000    -0.563495   
O26      O      0.756200000000     0.633640000000     0.944970000000    -0.563536   
O27      O      0.756080000000     0.568850000000     0.944990000000    -0.563514   
O28      O      0.756230000000     0.633670000000     0.011120000000    -0.563559   
O29      O      0.811080000000     0.634500000000     0.010630000000    -0.550589   
O30      O      0.810920000000     0.567820000000     0.945440000000    -0.550998   
O31      O      0.811050000000     0.634470000000     0.945420000000    -0.550926   
O32      O      0.810950000000     0.567840000000     0.010650000000    -0.550858   
O33      O      0.256080000000     0.067860000000     0.511320000000    -0.563385   
O34      O      0.255990000000     0.132680000000     0.445180000000    -0.563561   
O35      O      0.256110000000     0.067890000000     0.445160000000    -0.56359    
O36      O      0.255960000000     0.132650000000     0.511340000000    -0.56365    
O37      O      0.310810000000     0.133680000000     0.510890000000    -0.550787   
O38      O      0.310950000000     0.067050000000     0.445650000000    -0.550976   
O39      O      0.310830000000     0.133700000000     0.445670000000    -0.55097    
O40      O      0.310930000000     0.067030000000     0.510860000000    -0.550978   
O41      O      0.972290000000     0.794970000000     0.445470000000    -0.550749   
O42      O      0.038910000000     0.794880000000     0.510720000000    -0.550995   
O43      O      0.972260000000     0.794960000000     0.510680000000    -0.550775   
O44      O      0.038940000000     0.794890000000     0.445500000000    -0.550949   
O45      O      0.038080000000     0.849740000000     0.445040000000    -0.563605   
O46      O      0.973250000000     0.849800000000     0.511160000000    -0.563509   
O47      O      0.038040000000     0.849720000000     0.511200000000    -0.563708   
O48      O      0.973290000000     0.849820000000     0.445010000000    -0.563582   
O49      O      0.699280000000     0.067820000000     0.510630000000    -0.5511     
O50      O      0.699180000000     0.134490000000     0.445440000000    -0.550766   
O51      O      0.699310000000     0.067840000000     0.445420000000    -0.550924   
O52      O      0.699150000000     0.134470000000     0.510660000000    -0.550816   
O53      O      0.754000000000     0.133640000000     0.511150000000    -0.563561   
O54      O      0.754150000000     0.068870000000     0.444970000000    -0.563592   
O55      O      0.754030000000     0.133660000000     0.444990000000    -0.563568   
O56      O      0.754120000000     0.068850000000     0.511130000000    -0.563638   
O57      O      0.037850000000     0.406570000000     0.445680000000    -0.550843   
O58      O      0.971170000000     0.406630000000     0.510860000000    -0.550938   
O59      O      0.037820000000     0.406550000000     0.510890000000    -0.550955   
O60      O      0.971200000000     0.406650000000     0.445640000000    -0.550836   
O61      O      0.972060000000     0.351810000000     0.445160000000    -0.563506   
O62      O      0.036820000000     0.351710000000     0.511350000000    -0.563505   
O63      O      0.972030000000     0.351790000000     0.511320000000    -0.563508   
O64      O      0.036860000000     0.351730000000     0.445190000000    -0.563544   
O65      O      0.282560000000     0.331340000000     0.270490000000    -0.554663   
O66      O      0.260650000000     0.402270000000     0.214520000000    -0.559605   
O67      O      0.235530000000     0.378370000000     0.270510000000    -0.554617   
O68      O      0.306440000000     0.356480000000     0.214510000000    -0.559563   
O69      O      0.273810000000     0.322620000000     0.186380000000    -0.554466   
O70      O      0.202900000000     0.344520000000     0.242380000000    -0.559722   
O71      O      0.226790000000     0.369650000000     0.186390000000    -0.554644   
O72      O      0.248690000000     0.298720000000     0.242370000000    -0.559548   
O73      O      0.760790000000     0.299340000000     0.241870000000    -0.559794   
O74      O      0.782680000000     0.370250000000     0.185880000000    -0.554787   
O75      O      0.806570000000     0.345130000000     0.241870000000    -0.559759   
O76      O      0.735650000000     0.323220000000     0.185880000000    -0.554623   
O77      O      0.703030000000     0.357080000000     0.214010000000    -0.559775   
O78      O      0.773950000000     0.378990000000     0.269990000000    -0.554731   
O79      O      0.748820000000     0.402870000000     0.214000000000    -0.559947   
O80      O      0.726930000000     0.331960000000     0.270000000000    -0.554643   
O81      O      0.726700000000     0.331760000000     0.686290000000    -0.554561   
O82      O      0.748590000000     0.402670000000     0.742300000000    -0.559908   
O83      O      0.773720000000     0.378790000000     0.686310000000    -0.554758   
O84      O      0.702800000000     0.356880000000     0.742280000000    -0.559744   
O85      O      0.735420000000     0.323020000000     0.770410000000    -0.554746   
O86      O      0.806340000000     0.344920000000     0.714430000000    -0.559656   
O87      O      0.782450000000     0.370050000000     0.770410000000    -0.554769   
O88      O      0.760560000000     0.299140000000     0.714420000000    -0.559914   
O89      O      0.807340000000     0.857080000000     0.242100000000    -0.559703   
O90      O      0.736420000000     0.878990000000     0.186110000000    -0.554431   
O91      O      0.761550000000     0.902880000000     0.242110000000    -0.559349   
O92      O      0.783440000000     0.831960000000     0.186110000000    -0.554691   
O93      O      0.749580000000     0.799340000000     0.214240000000    -0.559929   
O94      O      0.727690000000     0.870250000000     0.270220000000    -0.554832   
O95      O      0.703800000000     0.845120000000     0.214240000000    -0.559747   
O96      O      0.774720000000     0.823220000000     0.270220000000    -0.554771   
O97      O      0.761400000000     0.902820000000     0.713960000000    -0.55983    
O98      O      0.783290000000     0.831900000000     0.769940000000    -0.554742   
O99      O      0.807190000000     0.857030000000     0.713960000000    -0.559722   
O100     O      0.736270000000     0.878930000000     0.769950000000    -0.554562   
O101     O      0.703650000000     0.845070000000     0.741820000000    -0.559748   
O102     O      0.774560000000     0.823180000000     0.685830000000    -0.554674   
O103     O      0.749430000000     0.799280000000     0.741820000000    -0.559775   
O104     O      0.727530000000     0.870210000000     0.685840000000    -0.554662   
O105     O      0.307280000000     0.844620000000     0.214050000000    -0.559693   
O106     O      0.236360000000     0.822710000000     0.270030000000    -0.554676   
O107     O      0.261500000000     0.798820000000     0.214030000000    -0.559618   
O108     O      0.283380000000     0.869730000000     0.270040000000    -0.554534   
O109     O      0.249520000000     0.902360000000     0.241910000000    -0.559632   
O110     O      0.227630000000     0.831450000000     0.185920000000    -0.554753   
O111     O      0.203740000000     0.856570000000     0.241910000000    -0.559755   
O112     O      0.274660000000     0.878480000000     0.185920000000    -0.554647   
O113     O      0.283200000000     0.869590000000     0.686330000000    -0.554617   
O114     O      0.261320000000     0.798670000000     0.742340000000    -0.55958    
O115     O      0.236180000000     0.822560000000     0.686340000000    -0.554556   
O116     O      0.307110000000     0.844470000000     0.742320000000    -0.559467   
O117     O      0.274480000000     0.878330000000     0.770440000000    -0.55467    
O118     O      0.203560000000     0.856420000000     0.714470000000    -0.559735   
O119     O      0.227460000000     0.831300000000     0.770460000000    -0.554749   
O120     O      0.249340000000     0.902210000000     0.714450000000    -0.559795   
O121     O      0.235420000000     0.378280000000     0.686110000000    -0.554742   
O122     O      0.306340000000     0.356380000000     0.742090000000    -0.559663   
O123     O      0.282450000000     0.331250000000     0.686100000000    -0.554571   
O124     O      0.260550000000     0.402160000000     0.742100000000    -0.559862   
O125     O      0.226690000000     0.369540000000     0.770220000000    -0.554627   
O126     O      0.248580000000     0.298630000000     0.714220000000    -0.559681   
O127     O      0.273720000000     0.322510000000     0.770210000000    -0.554738   
O128     O      0.202790000000     0.344420000000     0.714230000000    -0.559439   
V1       V      0.504520000000     0.292540000000     0.978270000000     1.36805    
V2       V      0.504450000000     0.351790000000     0.978250000000     1.42025    
V3       V      0.196850000000     0.600370000000     0.978270000000     1.36823    
V4       V      0.256100000000     0.600250000000     0.978260000000     1.42018    
V5       V      0.505590000000     0.908980000000     0.978090000000     1.36859    
V6       V      0.505660000000     0.849730000000     0.978100000000     1.42005    
V7       V      0.754010000000     0.601270000000     0.978060000000     1.4201     
V8       V      0.813260000000     0.601150000000     0.978030000000     1.36849    
V9       V      0.253890000000     0.100270000000     0.478250000000     1.42017    
V10      V      0.313140000000     0.100370000000     0.478270000000     1.36882    
V11      V      0.005600000000     0.792660000000     0.478090000000     1.36858    
V12      V      0.005670000000     0.851910000000     0.478100000000     1.42042    
V13      V      0.696970000000     0.101150000000     0.478040000000     1.36876    
V14      V      0.756220000000     0.101260000000     0.478060000000     1.42023    
V15      V      0.004510000000     0.408860000000     0.478270000000     1.36862    
V16      V      0.004440000000     0.349620000000     0.478250000000     1.41987    
V17      V      0.272560000000     0.368380000000     0.243780000000     1.39446    
V18      V      0.236770000000     0.332610000000     0.213110000000     1.3942     
V19      V      0.772700000000     0.333210000000     0.212600000000     1.39463    
V20      V      0.736910000000     0.369000000000     0.243270000000     1.39473    
V21      V      0.736680000000     0.368800000000     0.713020000000     1.39446    
V22      V      0.772460000000     0.333010000000     0.743690000000     1.3948     
V23      V      0.773460000000     0.868990000000     0.212830000000     1.3939     
V24      V      0.737680000000     0.833210000000     0.243500000000     1.39504    
V25      V      0.773310000000     0.868940000000     0.743220000000     1.39468    
V26      V      0.737520000000     0.833160000000     0.712550000000     1.39457    
V27      V      0.273400000000     0.832700000000     0.243310000000     1.39421    
V28      V      0.237620000000     0.868480000000     0.212640000000     1.39445    
V29      V      0.273220000000     0.832550000000     0.713060000000     1.39382    
V30      V      0.237440000000     0.868330000000     0.743730000000     1.39465    
V31      V      0.272460000000     0.368290000000     0.712830000000     1.39466    
V32      V      0.236680000000     0.332500000000     0.743500000000     1.39425    


