data_structure

_audit_creation_method RASPA-1.0
_audit_creation_date 2023-5-23
_audit_author_name 'Poobodin Mano'

_cell_length_a    58.229
_cell_length_b    58.1994
_cell_length_c    29.1519
_cell_angle_alpha 90
_cell_angle_beta  90
_cell_angle_gamma 90
_cell_volume      98792.7

_symmetry_cell_setting          triclinic
_symmetry_space_group_name_Hall 'P 1'
_symmetry_space_group_name_H-M  'P 1'
_symmetry_Int_Tables_number     1

_symmetry_equiv_pos_as_xyz 'x,y,z'

loop_
_atom_site_label
_atom_site_type_symbol
_atom_site_fract_x
_atom_site_fract_y
_atom_site_fract_z
_atom_site_charge
C1       C      0.375230000000     0.879450000000     0.084240000000     0.476408   
C2       C      0.378450000000     0.878070000000     0.910810000000     0.476064   
C3       C      0.376930000000     0.922200000000     0.996710000000     0.476386   
C4       C      0.376750000000     0.835360000000     0.998970000000     0.477739   
C5       C      0.378240000000     0.876340000000     0.584050000000     0.475555   
C6       C      0.375060000000     0.880780000000     0.410820000000     0.476518   
C7       C      0.376890000000     0.921940000000     0.502190000000     0.476274   
C8       C      0.376360000000     0.835200000000     0.492490000000     0.476776   
C9       C      0.377540000000     0.129660000000     0.937740000000     0.477129   
C10      C      0.378160000000     0.127670000000     0.111180000000     0.477127   
C11      C      0.377460000000     0.085220000000     0.021910000000     0.476883   
C12      C      0.378300000000     0.172050000000     0.026550000000     0.477425   
C13      C      0.377570000000     0.129280000000     0.437750000000     0.476619   
C14      C      0.378170000000     0.128140000000     0.611210000000     0.477131   
C15      C      0.377520000000     0.085240000000     0.522970000000     0.476468   
C16      C      0.378280000000     0.172120000000     0.525850000000     0.47708    
C17      C      0.876250000000     0.622130000000     0.082720000000     0.476044   
C18      C      0.878380000000     0.625370000000     0.909370000000     0.476553   
C19      C      0.920730000000     0.623290000000     0.998020000000     0.477018   
C20      C      0.833970000000     0.624260000000     0.993590000000     0.477362   
C21      C      0.877130000000     0.625480000000     0.582830000000     0.476663   
C22      C      0.875690000000     0.622260000000     0.409450000000     0.476183   
C23      C      0.919800000000     0.623340000000     0.494940000000     0.47682    
C24      C      0.833020000000     0.624510000000     0.497700000000     0.477591   
C25      C      0.128320000000     0.622230000000     0.909520000000     0.476138   
C26      C      0.126850000000     0.625460000000     0.082900000000     0.476572   
C27      C      0.084200000000     0.623320000000     0.994980000000     0.476953   
C28      C      0.170980000000     0.624470000000     0.997790000000     0.47795    
C29      C      0.125600000000     0.625340000000     0.409430000000     0.477003   
C30      C      0.127750000000     0.622110000000     0.582780000000     0.476572   
C31      C      0.083260000000     0.623270000000     0.498100000000     0.476911   
C32      C      0.170020000000     0.624220000000     0.493640000000     0.477844   
C33      C      0.625600000000     0.128090000000     0.111440000000     0.476617   
C34      C      0.626200000000     0.129320000000     0.937970000000     0.476502   
C35      C      0.626240000000     0.085240000000     0.023110000000     0.47629    
C36      C      0.625490000000     0.172120000000     0.026160000000     0.477139   
C37      C      0.625610000000     0.127700000000     0.611400000000     0.476728   
C38      C      0.626230000000     0.129690000000     0.437960000000     0.47671    
C39      C      0.626310000000     0.085250000000     0.522140000000     0.476955   
C40      C      0.625480000000     0.172080000000     0.526760000000     0.477688   
C41      C      0.628750000000     0.880760000000     0.910560000000     0.476143   
C42      C      0.625580000000     0.876370000000     0.083790000000     0.475462   
C43      C      0.626910000000     0.921950000000     0.001890000000     0.476218   
C44      C      0.627480000000     0.835200000000     0.992270000000     0.476523   
C45      C      0.625350000000     0.878140000000     0.410540000000     0.475526   
C46      C      0.628580000000     0.879460000000     0.583970000000     0.476422   
C47      C      0.626870000000     0.922250000000     0.496520000000     0.476753   
C48      C      0.627070000000     0.835410000000     0.498630000000     0.477914   
C49      C      0.376040000000     0.421770000000     0.004270000000     0.475851   
C50      C      0.377420000000     0.335220000000     0.016770000000     0.476653   
C51      C      0.333390000000     0.377650000000     0.004280000000     0.47636    
C52      C      0.419950000000     0.379390000000     0.016330000000     0.475399   
C53      C      0.376040000000     0.421930000000     0.507050000000     0.475303   
C54      C      0.378420000000     0.335380000000     0.520250000000     0.476276   
C55      C      0.333870000000     0.377320000000     0.508150000000     0.475963   
C56      C      0.420460000000     0.379990000000     0.518610000000     0.475226   
C57      C      0.377460000000     0.585280000000     0.996700000000     0.476961   
C58      C      0.377110000000     0.672120000000     0.001140000000     0.478127   
C59      C      0.334020000000     0.628670000000     0.002460000000     0.477814   
C60      C      0.420770000000     0.628930000000     0.995330000000     0.476778   
C61      C      0.376780000000     0.585320000000     0.489070000000     0.476598   
C62      C      0.375570000000     0.672110000000     0.480530000000     0.477297   
C63      C      0.332970000000     0.628350000000     0.482270000000     0.477664   
C64      C      0.419760000000     0.629310000000     0.487150000000     0.477001   
C65      C      0.583460000000     0.380010000000     0.018910000000     0.475514   
C66      C      0.670050000000     0.377280000000     0.008520000000     0.475951   
C67      C      0.625470000000     0.335380000000     0.020600000000     0.476318   
C68      C      0.627910000000     0.421920000000     0.007360000000     0.47548    
C69      C      0.583970000000     0.379430000000     0.516210000000     0.475343   
C70      C      0.670530000000     0.377670000000     0.504270000000     0.476062   
C71      C      0.626480000000     0.335250000000     0.516740000000     0.476799   
C72      C      0.627890000000     0.421800000000     0.504170000000     0.47601    
C73      C      0.627240000000     0.585310000000     0.989240000000     0.476313   
C74      C      0.628400000000     0.672100000000     0.980590000000     0.477347   
C75      C      0.671020000000     0.628370000000     0.982350000000     0.477857   
C76      C      0.584230000000     0.629280000000     0.987310000000     0.476708   
C77      C      0.626540000000     0.585320000000     0.496500000000     0.477219   
C78      C      0.626880000000     0.672160000000     0.500910000000     0.477861   
C79      C      0.669970000000     0.628710000000     0.502240000000     0.477864   
C80      C      0.583220000000     0.628970000000     0.495100000000     0.476999   
C81      C      0.126680000000     0.375080000000     0.073650000000     0.477072   
C82      C      0.127180000000     0.375700000000     0.900190000000     0.476806   
C83      C      0.083470000000     0.374840000000     0.986330000000     0.475999   
C84      C      0.170310000000     0.376020000000     0.987650000000     0.476917   
C85      C      0.126930000000     0.375060000000     0.573650000000     0.477276   
C86      C      0.128010000000     0.375680000000     0.400200000000     0.4773     
C87      C      0.084030000000     0.374830000000     0.485810000000     0.476233   
C88      C      0.170870000000     0.375970000000     0.488320000000     0.476935   
C89      C      0.875880000000     0.375670000000     0.900410000000     0.477195   
C90      C      0.877010000000     0.375040000000     0.073860000000     0.476804   
C91      C      0.919890000000     0.374820000000     0.985960000000     0.476421   
C92      C      0.833050000000     0.375940000000     0.988590000000     0.476824   
C93      C      0.876740000000     0.375690000000     0.400400000000     0.476842   
C94      C      0.877230000000     0.375060000000     0.573870000000     0.476604   
C95      C      0.920450000000     0.374830000000     0.486550000000     0.476112   
C96      C      0.833610000000     0.376000000000     0.487840000000     0.477242   
C97      C      0.875610000000     0.354780000000     0.825890000000    -0.0158805  
C98      C      0.877500000000     0.395950000000     0.648390000000    -0.015921   
C99      C      0.876480000000     0.354190000000     0.648720000000    -0.0162677  
C100     C      0.876380000000     0.363320000000     0.696270000000     0.0107937  
C101     C      0.876840000000     0.387130000000     0.696040000000     0.0105076  
C102     C      0.876660000000     0.399860000000     0.736860000000    -0.0655312  
C103     C      0.875830000000     0.396550000000     0.825550000000    -0.0161824  
C104     C      0.875930000000     0.350880000000     0.737420000000    -0.0655669  
C105     C      0.876090000000     0.387420000000     0.778000000000     0.0107332  
C106     C      0.875850000000     0.363610000000     0.778240000000     0.0105772  
C107     C      0.876640000000     0.354180000000     0.148740000000    -0.0161471  
C108     C      0.876740000000     0.396560000000     0.325530000000    -0.0161814  
C109     C      0.876550000000     0.354790000000     0.325900000000    -0.0159644  
C110     C      0.876630000000     0.363610000000     0.278240000000     0.0106067  
C111     C      0.876860000000     0.387430000000     0.277990000000     0.0107959  
C112     C      0.877230000000     0.399860000000     0.236830000000    -0.0655481  
C113     C      0.877630000000     0.395940000000     0.148360000000    -0.0160153  
C114     C      0.876530000000     0.350880000000     0.237430000000    -0.0655488  
C115     C      0.877230000000     0.387120000000     0.196020000000     0.0106253  
C116     C      0.876780000000     0.363310000000     0.196280000000     0.0107649  
C117     C      0.957810000000     0.353700000000     0.487180000000    -0.0162607  
C118     C      0.046550000000     0.395450000000     0.484150000000    -0.0161012  
C119     C      0.046680000000     0.353700000000     0.486450000000    -0.0162631  
C120     C      0.022790000000     0.362620000000     0.486010000000     0.0105906  
C121     C      0.022750000000     0.386420000000     0.484700000000     0.0109173  
C122     C      0.002240000000     0.398990000000     0.484200000000    -0.0655729  
C123     C      0.957930000000     0.395450000000     0.484880000000    -0.0160754  
C124     C      0.002240000000     0.350030000000     0.486900000000    -0.0652546  
C125     C      0.981730000000     0.386420000000     0.485070000000     0.0108926  
C126     C      0.981700000000     0.362610000000     0.486380000000     0.010627   
C127     C      0.127320000000     0.354200000000     0.648530000000    -0.0162523  
C128     C      0.127190000000     0.396580000000     0.825320000000    -0.0162715  
C129     C      0.127390000000     0.354810000000     0.825690000000    -0.0158672  
C130     C      0.127320000000     0.363630000000     0.778030000000     0.0105412  
C131     C      0.127080000000     0.387450000000     0.777780000000     0.0108375  
C132     C      0.126720000000     0.399880000000     0.736620000000    -0.0655478  
C133     C      0.126320000000     0.395960000000     0.648150000000    -0.0158485  
C134     C      0.127430000000     0.350900000000     0.737220000000    -0.0654702  
C135     C      0.126730000000     0.387140000000     0.695810000000     0.0105722  
C136     C      0.127180000000     0.363330000000     0.696070000000     0.0107778  
C137     C      0.126400000000     0.395970000000     0.148180000000    -0.0159202  
C138     C      0.128270000000     0.354800000000     0.325680000000    -0.0158679  
C139     C      0.128040000000     0.396570000000     0.325340000000    -0.016212   
C140     C      0.127790000000     0.387440000000     0.277790000000     0.0107657  
C141     C      0.128040000000     0.363630000000     0.278030000000     0.010521   
C142     C      0.127960000000     0.350900000000     0.237200000000    -0.065462   
C143     C      0.127420000000     0.354210000000     0.148510000000    -0.0162057  
C144     C      0.127230000000     0.399880000000     0.236650000000    -0.0655513  
C145     C      0.127520000000     0.363340000000     0.196060000000     0.0107545  
C146     C      0.127050000000     0.387150000000     0.195830000000     0.0105323  
C147     C      0.957240000000     0.353700000000     0.986510000000    -0.0163528  
C148     C      0.045990000000     0.395460000000     0.984700000000    -0.0162076  
C149     C      0.046120000000     0.353710000000     0.986990000000    -0.0162871  
C150     C      0.022220000000     0.362620000000     0.986260000000     0.0105721  
C151     C      0.022190000000     0.386430000000     0.984950000000     0.0109452  
C152     C      0.001680000000     0.398990000000     0.984140000000    -0.0655988  
C153     C      0.957360000000     0.395450000000     0.984210000000    -0.0161215  
C154     C      0.001680000000     0.350040000000     0.986840000000    -0.0651884  
C155     C      0.981160000000     0.386420000000     0.984700000000     0.0108907  
C156     C      0.981130000000     0.362620000000     0.986010000000     0.0105873  
C157     C      0.708820000000     0.391050000000     0.530910000000    -0.0169992  
C158     C      0.795580000000     0.359200000000     0.467010000000    -0.0168145  
C159     C      0.797030000000     0.393970000000     0.513160000000    -0.01672    
C160     C      0.772970000000     0.386300000000     0.506760000000     0.0114234  
C161     C      0.772040000000     0.367450000000     0.477760000000     0.0110456  
C162     C      0.751000000000     0.358730000000     0.462050000000    -0.0655614  
C163     C      0.706720000000     0.363860000000     0.467720000000    -0.0168167  
C164     C      0.753060000000     0.395390000000     0.526740000000    -0.0659277  
C165     C      0.731010000000     0.368920000000     0.479640000000     0.0109275  
C166     C      0.732100000000     0.385640000000     0.513410000000     0.0115235  
C167     C      0.627380000000     0.459910000000     0.542090000000    -0.0159536  
C168     C      0.627600000000     0.547670000000     0.454610000000    -0.0162454  
C169     C      0.625980000000     0.548120000000     0.537930000000    -0.0159556  
C170     C      0.626710000000     0.524270000000     0.520690000000     0.0112793  
C171     C      0.627580000000     0.523840000000     0.473180000000     0.0100653  
C172     C      0.628290000000     0.502960000000     0.448990000000    -0.0647938  
C173     C      0.628650000000     0.458430000000     0.458800000000    -0.0162912  
C174     C      0.626600000000     0.504090000000     0.546680000000    -0.0661812  
C175     C      0.628140000000     0.482670000000     0.475120000000     0.010062   
C176     C      0.627370000000     0.483340000000     0.522620000000     0.0113064  
C177     C      0.708450000000     0.390320000000     0.035250000000    -0.0169109  
C178     C      0.794960000000     0.359020000000     0.968730000000    -0.0167651  
C179     C      0.796560000000     0.393770000000     0.014920000000    -0.0166895  
C180     C      0.772490000000     0.385920000000     0.009350000000     0.0115352  
C181     C      0.771470000000     0.367080000000     0.980340000000     0.0109051  
C182     C      0.750360000000     0.358240000000     0.965250000000    -0.0655741  
C183     C      0.706130000000     0.363160000000     0.972050000000    -0.0168882  
C184     C      0.752680000000     0.394880000000     0.029970000000    -0.0659154  
C185     C      0.730450000000     0.368280000000     0.983480000000     0.0108728  
C186     C      0.731670000000     0.384990000000     0.017260000000     0.0115402  
C187     C      0.627050000000     0.546840000000     0.951470000000    -0.0159631  
C188     C      0.628390000000     0.460490000000     0.044150000000    -0.0162623  
C189     C      0.628390000000     0.458060000000     0.960910000000    -0.0162206  
C190     C      0.628180000000     0.482430000000     0.976130000000     0.0103084  
C191     C      0.628260000000     0.483750000000     0.023600000000     0.0110638  
C192     C      0.628110000000     0.504920000000     0.046490000000    -0.0657781  
C193     C      0.627620000000     0.549020000000     0.034730000000    -0.0162945  
C194     C      0.627770000000     0.502280000000     0.948870000000    -0.0651254  
C195     C      0.627790000000     0.524740000000     0.019270000000     0.0111837  
C196     C      0.627540000000     0.523470000000     0.971790000000     0.0101721  
C197     C      0.545310000000     0.629360000000     0.534490000000    -0.0159226  
C198     C      0.457610000000     0.629160000000     0.447290000000    -0.0159662  
C199     C      0.456670000000     0.630130000000     0.530640000000    -0.0162038  
C200     C      0.480710000000     0.629870000000     0.513730000000     0.0108837  
C201     C      0.481240000000     0.629440000000     0.466200000000     0.0104937  
C202     C      0.502040000000     0.629220000000     0.441950000000    -0.0653877  
C203     C      0.546360000000     0.629190000000     0.451130000000    -0.0162572  
C204     C      0.500940000000     0.629880000000     0.539700000000    -0.0655457  
C205     C      0.522290000000     0.629350000000     0.467930000000     0.0107429  
C206     C      0.521730000000     0.629570000000     0.515460000000     0.0106374  
C207     C      0.457620000000     0.629150000000     0.951340000000    -0.0162533  
C208     C      0.547320000000     0.630090000000     0.030820000000    -0.0161859  
C209     C      0.546380000000     0.629110000000     0.947480000000    -0.0159334  
C210     C      0.522750000000     0.629390000000     0.966390000000     0.0103533  
C211     C      0.523290000000     0.629830000000     0.013920000000     0.0110167  
C212     C      0.503050000000     0.629850000000     0.039900000000    -0.0656388  
C213     C      0.458690000000     0.629330000000     0.034700000000    -0.0159552  
C214     C      0.501950000000     0.629170000000     0.942150000000    -0.065295   
C215     C      0.482270000000     0.629530000000     0.015680000000     0.0108337  
C216     C      0.481700000000     0.629320000000     0.968140000000     0.0105724  
C217     C      0.297780000000     0.363210000000     0.471660000000    -0.0169086  
C218     C      0.207360000000     0.393810000000     0.514600000000    -0.016781   
C219     C      0.208960000000     0.359060000000     0.468410000000    -0.0169025  
C220     C      0.232450000000     0.367130000000     0.480000000000     0.0111048  
C221     C      0.231430000000     0.385970000000     0.509010000000     0.0113898  
C222     C      0.251240000000     0.394930000000     0.529610000000    -0.0658646  
C223     C      0.295470000000     0.390380000000     0.534870000000    -0.0170095  
C224     C      0.253550000000     0.358290000000     0.464890000000    -0.0656889  
C225     C      0.272250000000     0.385050000000     0.516890000000     0.01143    
C226     C      0.273460000000     0.368340000000     0.483100000000     0.011027   
C227     C      0.547070000000     0.379660000000     0.560940000000    -0.0163535  
C228     C      0.458030000000     0.381240000000     0.479010000000    -0.0161044  
C229     C      0.457690000000     0.380250000000     0.562360000000    -0.0164187  
C230     C      0.481710000000     0.380500000000     0.544680000000     0.00983726 
C231     C      0.481690000000     0.381080000000     0.497150000000     0.0115265  
C232     C      0.502040000000     0.381230000000     0.471800000000    -0.0663764  
C233     C      0.546110000000     0.380670000000     0.477610000000    -0.0160569  
C234     C      0.502410000000     0.380030000000     0.569530000000    -0.0645916  
C235     C      0.522590000000     0.380790000000     0.496490000000     0.0115425  
C236     C      0.522920000000     0.380210000000     0.544010000000     0.00977862 
C237     C      0.376410000000     0.549020000000     0.534520000000    -0.0162765  
C238     C      0.375590000000     0.458080000000     0.460620000000    -0.016206   
C239     C      0.375590000000     0.460490000000     0.543860000000    -0.0162721  
C240     C      0.375730000000     0.483760000000     0.523330000000     0.0109602  
C241     C      0.375820000000     0.482440000000     0.475860000000     0.0104305  
C242     C      0.376240000000     0.502300000000     0.448610000000    -0.0652021  
C243     C      0.376980000000     0.546860000000     0.451250000000    -0.0160364  
C244     C      0.375900000000     0.504910000000     0.546240000000    -0.0657149  
C245     C      0.376470000000     0.523490000000     0.471560000000     0.0103335  
C246     C      0.376230000000     0.524740000000     0.519040000000     0.0110097  
C247     C      0.297200000000     0.363860000000     0.967670000000    -0.0168802  
C248     C      0.206890000000     0.393990000000     0.013000000000    -0.0166167  
C249     C      0.208340000000     0.359230000000     0.966830000000    -0.0167153  
C250     C      0.231880000000     0.367460000000     0.977620000000     0.0108777  
C251     C      0.230950000000     0.386310000000     0.006620000000     0.0115465  
C252     C      0.250850000000     0.395400000000     0.026640000000    -0.0659194  
C253     C      0.295100000000     0.391040000000     0.030870000000    -0.0168591  
C254     C      0.252930000000     0.358740000000     0.961930000000    -0.0655199  
C255     C      0.271820000000     0.385640000000     0.013340000000     0.0115535  
C256     C      0.272910000000     0.368920000000     0.979550000000     0.0108605  
C257     C      0.456840000000     0.379620000000     0.061100000000    -0.0163233  
C258     C      0.545900000000     0.381270000000     0.979280000000    -0.0159835  
C259     C      0.546220000000     0.380270000000     0.062620000000    -0.016418   
C260     C      0.522190000000     0.380510000000     0.044910000000     0.00998464 
C261     C      0.522230000000     0.381100000000     0.997390000000     0.0113209  
C262     C      0.501890000000     0.381240000000     0.972010000000    -0.066262   
C263     C      0.457820000000     0.380640000000     0.977780000000    -0.0160471  
C264     C      0.501490000000     0.380020000000     0.069750000000    -0.0646778  
C265     C      0.481330000000     0.380780000000     0.996680000000     0.0113757  
C266     C      0.480990000000     0.380190000000     0.044200000000     0.00992831 
C267     C      0.376560000000     0.459880000000     0.042220000000    -0.016067   
C268     C      0.376400000000     0.547640000000     0.954790000000    -0.0162221  
C269     C      0.378010000000     0.548080000000     0.038110000000    -0.0159006  
C270     C      0.377270000000     0.524230000000     0.020850000000     0.011415   
C271     C      0.376400000000     0.523810000000     0.973350000000     0.00993767 
C272     C      0.375680000000     0.502940000000     0.949140000000    -0.0647061  
C273     C      0.375310000000     0.458410000000     0.958930000000    -0.0162578  
C274     C      0.377360000000     0.504050000000     0.046830000000    -0.0662558  
C275     C      0.375820000000     0.482640000000     0.975260000000     0.00987931 
C276     C      0.376590000000     0.483310000000     0.022760000000     0.0115091  
C277     C      0.643830000000     0.798000000000     0.474590000000    -0.0167239  
C278     C      0.615390000000     0.709490000000     0.535980000000    -0.0168417  
C279     C      0.639840000000     0.709410000000     0.468340000000    -0.0166278  
C280     C      0.635390000000     0.733230000000     0.483930000000     0.0114155  
C281     C      0.620090000000     0.733330000000     0.520360000000     0.0113366  
C282     C      0.610610000000     0.753910000000     0.536770000000    -0.0656011  
C283     C      0.610820000000     0.798210000000     0.525690000000    -0.0167954  
C284     C      0.644640000000     0.753650000000     0.466470000000    -0.0659019  
C285     C      0.618700000000     0.774340000000     0.517030000000     0.0112881  
C286     C      0.636410000000     0.774220000000     0.485240000000     0.0114401  
C287     C      0.642460000000     0.709060000000     0.012250000000    -0.016577   
C288     C      0.611470000000     0.798300000000     0.962640000000    -0.0168581  
C289     C      0.644930000000     0.797590000000     0.012500000000    -0.016422   
C290     C      0.637910000000     0.773950000000     0.999870000000     0.0113301  
C291     C      0.619900000000     0.774390000000     0.968810000000     0.0110498  
C292     C      0.611920000000     0.754160000000     0.947900000000    -0.0653722  
C293     C      0.617250000000     0.709690000000     0.945760000000    -0.017144   
C294     C      0.646680000000     0.753210000000     0.016710000000    -0.0657724  
C295     C      0.621930000000     0.733430000000     0.962340000000     0.0112327  
C296     C      0.637640000000     0.732980000000     0.998050000000     0.0114087  
C297     C      0.608660000000     0.882850000000     0.835530000000    -0.0161257  
C298     C      0.650230000000     0.879220000000     0.658260000000    -0.0162952  
C299     C      0.608540000000     0.881310000000     0.659070000000    -0.016019   
C300     C      0.617710000000     0.881470000000     0.706370000000     0.0110993  
C301     C      0.641480000000     0.880260000000     0.706170000000     0.0102416  
C302     C      0.654090000000     0.879980000000     0.747240000000    -0.0649548  
C303     C      0.650350000000     0.880700000000     0.836230000000    -0.0163217  
C304     C      0.605210000000     0.882480000000     0.747290000000    -0.0659864  
C305     C      0.641540000000     0.881020000000     0.788340000000     0.010241   
C306     C      0.617770000000     0.882250000000     0.788180000000     0.0111295  
C307     C      0.603780000000     0.876260000000     0.336170000000    -0.0165178  
C308     C      0.645640000000     0.876410000000     0.158960000000    -0.0160723  
C309     C      0.603950000000     0.874460000000     0.158080000000    -0.0165133  
C310     C      0.612690000000     0.875100000000     0.206040000000     0.01019    
C311     C      0.636470000000     0.876210000000     0.206280000000     0.0110162  
C312     C      0.648960000000     0.877280000000     0.247210000000    -0.0660024  
C313     C      0.645470000000     0.878270000000     0.335430000000    -0.0159898  
C314     C      0.600070000000     0.874980000000     0.247130000000    -0.065001   
C315     C      0.636390000000     0.877150000000     0.288100000000     0.0109766  
C316     C      0.612610000000     0.876020000000     0.288250000000     0.0102299  
C317     C      0.607650000000     0.209150000000     0.504030000000    -0.0167363  
C318     C      0.639110000000     0.298580000000     0.553060000000    -0.01672    
C319     C      0.611800000000     0.297470000000     0.490000000000    -0.0168681  
C320     C      0.616750000000     0.273960000000     0.506810000000     0.0115669  
C321     C      0.633540000000     0.274480000000     0.540500000000     0.0109061  
C322     C      0.643500000000     0.254160000000     0.557120000000    -0.0655542  
C323     C      0.642510000000     0.209660000000     0.549970000000    -0.0167859  
C324     C      0.606710000000     0.253280000000     0.492630000000    -0.0660145  
C325     C      0.634460000000     0.233400000000     0.540600000000     0.0110179  
C326     C      0.615550000000     0.233050000000     0.511720000000     0.0115236  
C327     C      0.605660000000     0.047810000000     0.517870000000    -0.0159526  
C328     C      0.647650000000     0.959700000000     0.498910000000    -0.0161769  
C329     C      0.605900000000     0.959570000000     0.499410000000    -0.0161632  
C330     C      0.614820000000     0.983330000000     0.503720000000     0.0108038  
C331     C      0.638620000000     0.983420000000     0.503340000000     0.0107509  
C332     C      0.651140000000     0.003890000000     0.507460000000    -0.0654233  
C333     C      0.647400000000     0.048030000000     0.516720000000    -0.0162034  
C334     C      0.602190000000     0.003690000000     0.508440000000    -0.0654122  
C335     C      0.638510000000     0.024260000000     0.512040000000     0.0108064  
C336     C      0.614710000000     0.024150000000     0.512610000000     0.0107124  
C337     C      0.607530000000     0.209230000000     0.003970000000    -0.01682    
C338     C      0.637930000000     0.298570000000     0.056640000000    -0.0169108  
C339     C      0.610600000000     0.297710000000     0.993590000000    -0.0172343  
C340     C      0.615800000000     0.274120000000     0.009570000000     0.0119138  
C341     C      0.632600000000     0.274500000000     0.043240000000     0.0107905  
C342     C      0.642830000000     0.254130000000     0.058960000000    -0.0653891  
C343     C      0.642380000000     0.209670000000     0.049910000000    -0.0166085  
C344     C      0.606030000000     0.253460000000     0.994500000000    -0.0663705  
C345     C      0.634040000000     0.233430000000     0.041570000000     0.0107945  
C346     C      0.615140000000     0.233140000000     0.012690000000     0.0117768  
C347     C      0.647070000000     0.129700000000     0.863100000000    -0.0162407  
C348     C      0.604750000000     0.127640000000     0.686280000000    -0.016227   
C349     C      0.646490000000     0.127550000000     0.685930000000    -0.015944   
C350     C      0.637670000000     0.128060000000     0.733580000000     0.0105262  
C351     C      0.613870000000     0.128000000000     0.733820000000     0.0107825  
C352     C      0.601440000000     0.128310000000     0.774970000000    -0.0654996  
C353     C      0.605320000000     0.129010000000     0.863450000000    -0.0160081  
C354     C      0.650390000000     0.128660000000     0.774400000000    -0.0654651  
C355     C      0.614150000000     0.128790000000     0.815790000000     0.010582   
C356     C      0.637960000000     0.129070000000     0.815540000000     0.0107346  
C357     C      0.646490000000     0.128170000000     0.185940000000    -0.0158491  
C358     C      0.605350000000     0.129640000000     0.363460000000    -0.01595    
C359     C      0.647090000000     0.130310000000     0.363090000000    -0.0161885  
C360     C      0.637980000000     0.129750000000     0.315550000000     0.0107194  
C361     C      0.614170000000     0.129490000000     0.315800000000     0.0105818  
C362     C      0.601450000000     0.129010000000     0.275000000000    -0.0655127  
C363     C      0.604750000000     0.128280000000     0.186310000000    -0.0161953  
C364     C      0.650400000000     0.129330000000     0.274400000000    -0.0654597  
C365     C      0.613870000000     0.128700000000     0.233850000000     0.0107892  
C366     C      0.637680000000     0.128750000000     0.233590000000     0.0105009  
C367     C      0.605870000000     0.959200000000     0.007500000000    -0.0160607  
C368     C      0.647320000000     0.047950000000     0.019230000000    -0.016101   
C369     C      0.605580000000     0.047720000000     0.020900000000    -0.0160342  
C370     C      0.614640000000     0.023980000000     0.017280000000     0.0107286  
C371     C      0.638440000000     0.024100000000     0.016370000000     0.0107509  
C372     C      0.651070000000     0.003680000000     0.012790000000    -0.0653273  
C373     C      0.647610000000     0.959400000000     0.006180000000    -0.0159653  
C374     C      0.602130000000     0.003440000000     0.014540000000    -0.06535    
C375     C      0.638570000000     0.983140000000     0.010140000000     0.0106786  
C376     C      0.614770000000     0.983020000000     0.010940000000     0.0107759  
C377     C      0.207230000000     0.608500000000     0.465300000000    -0.0169395  
C378     C      0.295820000000     0.641170000000     0.515110000000    -0.0166932  
C379     C      0.295570000000     0.616050000000     0.448440000000    -0.0169277  
C380     C      0.271820000000     0.620130000000     0.465340000000     0.0111751  
C381     C      0.271990000000     0.635780000000     0.501190000000     0.0116455  
C382     C      0.251610000000     0.644390000000     0.519940000000    -0.0661058  
C383     C      0.207300000000     0.641880000000     0.515490000000    -0.0166481  
C384     C      0.251310000000     0.609750000000     0.450820000000    -0.0654146  
C385     C      0.231050000000     0.635230000000     0.503080000000     0.0116178  
C386     C      0.230960000000     0.617270000000     0.471850000000     0.0110848  
C387     C      0.208010000000     0.642010000000     0.974080000000    -0.0166243  
C388     C      0.296960000000     0.616580000000     0.037890000000    -0.0169667  
C389     C      0.296550000000     0.641140000000     0.970400000000    -0.0167358  
C390     C      0.272860000000     0.635860000000     0.985450000000     0.0115095  
C391     C      0.273050000000     0.620500000000     0.021790000000     0.0113467  
C392     C      0.252700000000     0.610250000000     0.037530000000    -0.0655371  
C393     C      0.208470000000     0.608960000000     0.025100000000    -0.0168035  
C394     C      0.252270000000     0.644380000000     0.967390000000    -0.0660509  
C395     C      0.232140000000     0.617640000000     0.017190000000     0.0112597  
C396     C      0.231900000000     0.635380000000     0.985470000000     0.0114845  
C397     C      0.127560000000     0.642300000000     0.834360000000    -0.0161589  
C398     C      0.129650000000     0.600520000000     0.657130000000    -0.0164201  
C399     C      0.127290000000     0.642220000000     0.657890000000    -0.0161111  
C400     C      0.128030000000     0.633100000000     0.705220000000     0.0110571  
C401     C      0.129370000000     0.609330000000     0.705060000000     0.0102024  
C402     C      0.130140000000     0.596760000000     0.746180000000    -0.0649533  
C403     C      0.129950000000     0.600600000000     0.835220000000    -0.0163023  
C404     C      0.127370000000     0.645650000000     0.746120000000    -0.0660129  
C405     C      0.129500000000     0.609360000000     0.787270000000     0.010156   
C406     C      0.128150000000     0.633140000000     0.787050000000     0.0110965  
C407     C      0.127000000000     0.647080000000     0.157230000000    -0.0162905  
C408     C      0.124260000000     0.605290000000     0.334320000000    -0.0159198  
C409     C      0.126000000000     0.647020000000     0.335190000000    -0.0162373  
C410     C      0.125740000000     0.638250000000     0.287270000000     0.0102469  
C411     C      0.124740000000     0.614450000000     0.287030000000     0.0110762  
C412     C      0.124490000000     0.601930000000     0.246110000000    -0.065971   
C413     C      0.125310000000     0.605350000000     0.157920000000    -0.0159235  
C414     C      0.126520000000     0.650860000000     0.246220000000    -0.0649949  
C415     C      0.125260000000     0.614480000000     0.205240000000     0.0110604  
C416     C      0.126240000000     0.638280000000     0.205110000000     0.0102678  
C417     C      0.795520000000     0.609000000000     0.524970000000    -0.0166774  
C418     C      0.707450000000     0.641170000000     0.470190000000    -0.0168048  
C419     C      0.707030000000     0.616620000000     0.537700000000    -0.0168868  
C420     C      0.730940000000     0.620530000000     0.521610000000     0.0111519  
C421     C      0.731140000000     0.635890000000     0.485260000000     0.0117217  
C422     C      0.751730000000     0.644410000000     0.467210000000    -0.0662118  
C423     C      0.795990000000     0.642050000000     0.473940000000    -0.0168829  
C424     C      0.751280000000     0.610290000000     0.537370000000    -0.065372   
C425     C      0.772100000000     0.635410000000     0.485310000000     0.0117642  
C426     C      0.771850000000     0.617670000000     0.517040000000     0.0109856  
C427     C      0.957250000000     0.643980000000     0.495130000000    -0.0159552  
C428     C      0.045920000000     0.602190000000     0.498610000000    -0.0160123  
C429     C      0.045820000000     0.643960000000     0.498530000000    -0.0161224  
C430     C      0.022030000000     0.634930000000     0.497800000000     0.0109844  
C431     C      0.022050000000     0.611120000000     0.497810000000     0.0105629  
C432     C      0.001520000000     0.598530000000     0.496890000000    -0.0652548  
C433     C      0.957120000000     0.602210000000     0.495000000000    -0.0161085  
C434     C      0.001540000000     0.647510000000     0.496920000000    -0.0656043  
C435     C      0.981000000000     0.611130000000     0.495990000000     0.0106249  
C436     C      0.981030000000     0.634940000000     0.496040000000     0.0108791  
C437     C      0.796700000000     0.641930000000     0.015440000000    -0.0167339  
C438     C      0.708410000000     0.616070000000     0.948500000000    -0.0168428  
C439     C      0.708170000000     0.641200000000     0.015140000000    -0.01653    
C440     C      0.732000000000     0.635820000000     0.001200000000     0.0117269  
C441     C      0.732170000000     0.620160000000     0.965360000000     0.0110356  
C442     C      0.752670000000     0.609780000000     0.950830000000    -0.0653365  
C443     C      0.796760000000     0.608540000000     0.965270000000    -0.0168232  
C444     C      0.752390000000     0.644440000000     0.019930000000    -0.0662048  
C445     C      0.773030000000     0.617310000000     0.971830000000     0.0108834  
C446     C      0.772940000000     0.635280000000     0.003050000000     0.0118236  
C447     C      0.877980000000     0.647040000000     0.835120000000    -0.016144   
C448     C      0.878660000000     0.605380000000     0.657850000000    -0.0158889  
C449     C      0.876980000000     0.647110000000     0.657160000000    -0.0162627  
C450     C      0.877740000000     0.638310000000     0.705040000000     0.0102435  
C451     C      0.878710000000     0.614510000000     0.705170000000     0.0110518  
C452     C      0.879480000000     0.601950000000     0.746040000000    -0.0659816  
C453     C      0.879720000000     0.605310000000     0.834260000000    -0.0160549  
C454     C      0.877460000000     0.650890000000     0.746150000000    -0.0649669  
C455     C      0.879230000000     0.614480000000     0.786970000000     0.0111188  
C456     C      0.878240000000     0.638280000000     0.787200000000     0.0101842  
C457     C      0.874060000000     0.600630000000     0.335150000000    -0.01633    
C458     C      0.876720000000     0.642240000000     0.157820000000    -0.0159253  
C459     C      0.874360000000     0.600550000000     0.157060000000    -0.0163494  
C460     C      0.874640000000     0.609350000000     0.204990000000     0.0102074  
C461     C      0.875990000000     0.633130000000     0.205150000000     0.0109847  
C462     C      0.876650000000     0.645680000000     0.246050000000    -0.0659494  
C463     C      0.876460000000     0.642320000000     0.334290000000    -0.0160212  
C464     C      0.873870000000     0.596790000000     0.246120000000    -0.0649727  
C465     C      0.875870000000     0.633170000000     0.286980000000     0.0110185  
C466     C      0.874510000000     0.609390000000     0.287200000000     0.0102076  
C467     C      0.958070000000     0.602200000000     0.998530000000    -0.016068   
C468     C      0.046750000000     0.643970000000     0.995130000000    -0.0161518  
C469     C      0.046870000000     0.602200000000     0.995000000000    -0.0161473  
C470     C      0.022990000000     0.611120000000     0.995960000000     0.0105936  
C471     C      0.022960000000     0.634940000000     0.996010000000     0.0109575  
C472     C      0.002460000000     0.647510000000     0.996880000000    -0.0656796  
C473     C      0.958180000000     0.643970000000     0.998460000000    -0.0163071  
C474     C      0.002470000000     0.598530000000     0.996840000000    -0.065256   
C475     C      0.981960000000     0.634940000000     0.997740000000     0.0110347  
C476     C      0.981940000000     0.611120000000     0.997750000000     0.010532   
C477     C      0.361390000000     0.209690000000     0.549540000000    -0.0168292  
C478     C      0.393250000000     0.297710000000     0.493230000000    -0.0170061  
C479     C      0.365920000000     0.298580000000     0.556260000000    -0.0168372  
C480     C      0.371220000000     0.274510000000     0.542860000000     0.0108548  
C481     C      0.388020000000     0.274120000000     0.509190000000     0.0116252  
C482     C      0.397780000000     0.253450000000     0.494120000000    -0.066087   
C483     C      0.396240000000     0.209230000000     0.503610000000    -0.0166764  
C484     C      0.360980000000     0.254150000000     0.558580000000    -0.0654361  
C485     C      0.388650000000     0.233140000000     0.512310000000     0.0115458  
C486     C      0.369750000000     0.233440000000     0.541190000000     0.010923   
C487     C      0.364760000000     0.298540000000     0.053030000000    -0.0166704  
C488     C      0.396150000000     0.209110000000     0.003860000000    -0.0166857  
C489     C      0.361290000000     0.209620000000     0.049780000000    -0.0166267  
C490     C      0.369360000000     0.233370000000     0.040460000000     0.0108555  
C491     C      0.388270000000     0.233010000000     0.011590000000     0.0117494  
C492     C      0.397140000000     0.253240000000     0.992550000000    -0.0663935  
C493     C      0.392090000000     0.297440000000     0.990000000000    -0.0171765  
C494     C      0.360330000000     0.254130000000     0.057000000000    -0.0654101  
C495     C      0.387110000000     0.273930000000     0.006760000000     0.0118933  
C496     C      0.370300000000     0.274440000000     0.040430000000     0.0107932  
C497     C      0.357270000000     0.128230000000     0.685720000000    -0.0159295  
C498     C      0.398420000000     0.129630000000     0.863240000000    -0.0158332  
C499     C      0.356680000000     0.130310000000     0.862870000000    -0.0161719  
C500     C      0.365800000000     0.129770000000     0.815330000000     0.0107349  
C501     C      0.389600000000     0.129500000000     0.815580000000     0.0105131  
C502     C      0.402320000000     0.129030000000     0.774770000000    -0.0654837  
C503     C      0.399020000000     0.128330000000     0.686090000000    -0.016174   
C504     C      0.353370000000     0.129360000000     0.774180000000    -0.0654835  
C505     C      0.389900000000     0.128740000000     0.733630000000     0.0107729  
C506     C      0.366090000000     0.128800000000     0.733370000000     0.0105397  
C507     C      0.399020000000     0.127590000000     0.186050000000    -0.0161782  
C508     C      0.356700000000     0.129650000000     0.362870000000    -0.0163128  
C509     C      0.398440000000     0.128950000000     0.363220000000    -0.0158948  
C510     C      0.389620000000     0.128740000000     0.315570000000     0.0105269  
C511     C      0.365810000000     0.129020000000     0.315320000000     0.0107727  
C512     C      0.353380000000     0.128610000000     0.274170000000    -0.0654851  
C513     C      0.357280000000     0.127510000000     0.185700000000    -0.0159072  
C514     C      0.402330000000     0.128250000000     0.274750000000    -0.0654626  
C515     C      0.366100000000     0.128020000000     0.233360000000     0.0105457  
C516     C      0.389900000000     0.127950000000     0.233600000000     0.0107493  
C517     C      0.386670000000     0.709720000000     0.445740000000    -0.0170512  
C518     C      0.358930000000     0.797570000000     0.512640000000    -0.016707   
C519     C      0.392390000000     0.798320000000     0.462780000000    -0.0168956  
C520     C      0.383970000000     0.774400000000     0.468900000000     0.0109643  
C521     C      0.365960000000     0.773940000000     0.499960000000     0.0116437  
C522     C      0.357210000000     0.753190000000     0.516760000000    -0.0661051  
C523     C      0.361470000000     0.709040000000     0.512230000000    -0.0167435  
C524     C      0.391960000000     0.754190000000     0.447950000000    -0.0652881  
C525     C      0.366260000000     0.732970000000     0.498070000000     0.011685   
C526     C      0.381970000000     0.733450000000     0.462350000000     0.0111285  
C527     C      0.356450000000     0.047950000000     0.519200000000    -0.0160893  
C528     C      0.397910000000     0.959200000000     0.507770000000    -0.0163042  
C529     C      0.356170000000     0.959390000000     0.506460000000    -0.0160313  
C530     C      0.365210000000     0.983130000000     0.510350000000     0.0106589  
C531     C      0.389010000000     0.983020000000     0.511150000000     0.0108258  
C532     C      0.401640000000     0.003450000000     0.514670000000    -0.0654185  
C533     C      0.398180000000     0.047730000000     0.520870000000    -0.0160697  
C534     C      0.352700000000     0.003670000000     0.512920000000    -0.0653145  
C535     C      0.389130000000     0.023980000000     0.517330000000     0.0107659  
C536     C      0.365330000000     0.024100000000     0.516430000000     0.010687   
C537     C      0.388560000000     0.709460000000     0.036240000000    -0.0168616  
C538     C      0.360020000000     0.797940000000     0.974950000000    -0.016645   
C539     C      0.393030000000     0.798180000000     0.026050000000    -0.016851   
C540     C      0.385170000000     0.774310000000     0.017370000000     0.0114653  
C541     C      0.367460000000     0.774170000000     0.985590000000     0.0112756  
C542     C      0.359260000000     0.753600000000     0.966790000000    -0.0657997  
C543     C      0.364120000000     0.709370000000     0.968600000000    -0.0165674  
C544     C      0.393290000000     0.753880000000     0.037090000000    -0.065699   
C545     C      0.368530000000     0.733180000000     0.984220000000     0.0112381  
C546     C      0.383840000000     0.733290000000     0.020650000000     0.01151    
C547     C      0.358330000000     0.878160000000     0.835700000000    -0.0162252  
C548     C      0.399860000000     0.874420000000     0.658340000000    -0.0162763  
C549     C      0.358170000000     0.876340000000     0.659230000000    -0.0161858  
C550     C      0.367340000000     0.876130000000     0.706540000000     0.011109   
C551     C      0.391120000000     0.875040000000     0.706310000000     0.0100532  
C552     C      0.403750000000     0.874920000000     0.747390000000    -0.0648799  
C553     C      0.400020000000     0.876180000000     0.836440000000    -0.0162667  
C554     C      0.354850000000     0.877190000000     0.747480000000    -0.066106   
C555     C      0.391200000000     0.875940000000     0.788520000000     0.010051   
C556     C      0.367420000000     0.877050000000     0.788370000000     0.0111293  
C557     C      0.395270000000     0.881340000000     0.159330000000    -0.0160867  
C558     C      0.353460000000     0.880720000000     0.336500000000    -0.0162383  
C559     C      0.395150000000     0.882890000000     0.335790000000    -0.0161224  
C560     C      0.386040000000     0.882290000000     0.288450000000     0.01115    
C561     C      0.362270000000     0.881050000000     0.288600000000     0.0102163  
C562     C      0.349720000000     0.879990000000     0.247510000000    -0.06494    
C563     C      0.353580000000     0.879230000000     0.158530000000    -0.0162909  
C564     C      0.398600000000     0.882530000000     0.247560000000    -0.0660031  
C565     C      0.362320000000     0.880280000000     0.206440000000     0.010232   
C566     C      0.386100000000     0.881500000000     0.206640000000     0.0111266  
C567     C      0.398110000000     0.047780000000     0.017690000000    -0.0158478  
C568     C      0.356130000000     0.959650000000     0.998990000000    -0.0164655  
C569     C      0.397880000000     0.959530000000     0.999500000000    -0.0162679  
C570     C      0.388960000000     0.983300000000     0.003730000000     0.0108633  
C571     C      0.365150000000     0.983380000000     0.003350000000     0.0109031  
C572     C      0.352630000000     0.003840000000     0.007400000000    -0.0654407  
C573     C      0.356370000000     0.048000000000     0.016530000000    -0.0159939  
C574     C      0.401580000000     0.003660000000     0.008380000000    -0.0654317  
C575     C      0.365260000000     0.024220000000     0.011920000000     0.0107414  
C576     C      0.389060000000     0.024120000000     0.012490000000     0.0107446  
H1       H      0.860760000000     0.343960000000     0.641620000000     0.039504   
H2       H      0.862360000000     0.406960000000     0.640970000000     0.038894   
H3       H      0.876960000000     0.418450000000     0.736610000000     0.0410902  
H4       H      0.875680000000     0.332290000000     0.737660000000     0.0411707  
H5       H      0.859990000000     0.344320000000     0.832550000000     0.0389033  
H6       H      0.891300000000     0.407170000000     0.832600000000     0.0389684  
H7       H      0.891780000000     0.343220000000     0.642450000000     0.03897    
H8       H      0.893370000000     0.406090000000     0.642080000000     0.0397117  
H9       H      0.860270000000     0.407140000000     0.831880000000     0.0392925  
H10      H      0.891020000000     0.344070000000     0.832970000000     0.0399253  
H11      H      0.892010000000     0.344130000000     0.332820000000     0.0399146  
H12      H      0.892250000000     0.407150000000     0.332400000000     0.0390277  
H13      H      0.877500000000     0.418450000000     0.236570000000     0.0412422  
H14      H      0.876270000000     0.332290000000     0.237700000000     0.0411813  
H15      H      0.891920000000     0.343210000000     0.142140000000     0.0389431  
H16      H      0.862440000000     0.406940000000     0.141250000000     0.0390184  
H17      H      0.860980000000     0.344290000000     0.332740000000     0.0389928  
H18      H      0.861220000000     0.407180000000     0.332030000000     0.0394409  
H19      H      0.893450000000     0.406090000000     0.141710000000     0.0398132  
H20      H      0.860890000000     0.343940000000     0.141970000000     0.0394975  
H21      H      0.050100000000     0.342740000000     0.456000000000     0.0392457  
H22      H      0.049900000000     0.405590000000     0.452540000000     0.0394586  
H23      H      0.002230000000     0.417580000000     0.483230000000     0.0411987  
H24      H      0.002250000000     0.331440000000     0.487970000000     0.0411806  
H25      H      0.954280000000     0.342700000000     0.456820000000     0.0392655  
H26      H      0.954670000000     0.406490000000     0.515310000000     0.0393738  
H27      H      0.050120000000     0.343520000000     0.517960000000     0.0394753  
H28      H      0.049910000000     0.406520000000     0.514480000000     0.03942    
H29      H      0.954470000000     0.405620000000     0.453360000000     0.0395278  
H30      H      0.954480000000     0.343540000000     0.518760000000     0.0394234  
H31      H      0.142960000000     0.344310000000     0.832540000000     0.0389636  
H32      H      0.142710000000     0.407200000000     0.831830000000     0.0394684  
H33      H      0.126450000000     0.418470000000     0.736360000000     0.0412355  
H34      H      0.127690000000     0.332300000000     0.737480000000     0.0411235  
H35      H      0.143070000000     0.343960000000     0.641760000000     0.0394971  
H36      H      0.110500000000     0.406110000000     0.641500000000     0.0397592  
H37      H      0.111930000000     0.344150000000     0.832600000000     0.039895   
H38      H      0.111680000000     0.407170000000     0.832180000000     0.0390356  
H39      H      0.141520000000     0.406960000000     0.641040000000     0.0389595  
H40      H      0.112050000000     0.343230000000     0.641930000000     0.0389517  
H41      H      0.112570000000     0.407180000000     0.332380000000     0.038989   
H42      H      0.112860000000     0.344090000000     0.332760000000     0.0399241  
H43      H      0.128220000000     0.332300000000     0.237450000000     0.0411195  
H44      H      0.126920000000     0.418470000000     0.236400000000     0.0410997  
H45      H      0.110530000000     0.406110000000     0.141850000000     0.0397065  
H46      H      0.143140000000     0.343980000000     0.141420000000     0.0395053  
H47      H      0.143600000000     0.407160000000     0.331670000000     0.0393107  
H48      H      0.143890000000     0.344340000000     0.332340000000     0.038888   
H49      H      0.112120000000     0.343230000000     0.142230000000     0.0389416  
H50      H      0.141540000000     0.406980000000     0.140760000000     0.0389109  
H51      H      0.049630000000     0.342710000000     0.956620000000     0.0392543  
H52      H      0.049430000000     0.405630000000     0.953170000000     0.0395412  
H53      H      0.001680000000     0.417580000000     0.983170000000     0.041186   
H54      H      0.001680000000     0.331440000000     0.987920000000     0.0411159  
H55      H      0.953800000000     0.342730000000     0.956080000000     0.0392399  
H56      H      0.954020000000     0.406520000000     0.014560000000     0.0394767  
H57      H      0.049460000000     0.343550000000     0.018570000000     0.0394958  
H58      H      0.049260000000     0.406500000000     0.015120000000     0.0394728  
H59      H      0.953990000000     0.405590000000     0.952610000000     0.0394424  
H60      H      0.953830000000     0.343520000000     0.018030000000     0.0395595  
H61      H      0.801750000000     0.394720000000     0.550070000000     0.0366048  
H62      H      0.798610000000     0.341850000000     0.481740000000     0.0414862  
H63      H      0.750220000000     0.344770000000     0.437570000000     0.041742   
H64      H      0.753850000000     0.409270000000     0.551410000000     0.0418219  
H65      H      0.706970000000     0.385690000000     0.567310000000     0.0418289  
H66      H      0.702800000000     0.369340000000     0.432050000000     0.0414391  
H67      H      0.799780000000     0.411210000000     0.497690000000     0.0415335  
H68      H      0.798620000000     0.358490000000     0.429400000000     0.0364921  
H69      H      0.702790000000     0.345260000000     0.471190000000     0.0363912  
H70      H      0.704980000000     0.409710000000     0.528240000000     0.0368337  
H71      H      0.640980000000     0.551860000000     0.560290000000     0.0392856  
H72      H      0.643450000000     0.551170000000     0.434570000000     0.0392793  
H73      H      0.628920000000     0.502530000000     0.411890000000     0.0412822  
H74      H      0.625950000000     0.504520000000     0.583780000000     0.0411171  
H75      H      0.642650000000     0.457090000000     0.564270000000     0.0391845  
H76      H      0.613530000000     0.454500000000     0.436910000000     0.0390634  
H77      H      0.609980000000     0.551370000000     0.557710000000     0.0398117  
H78      H      0.612450000000     0.550740000000     0.432260000000     0.0390281  
H79      H      0.644530000000     0.454810000000     0.438970000000     0.0391367  
H80      H      0.611630000000     0.456740000000     0.562700000000     0.0400984  
H81      H      0.801610000000     0.394530000000     0.051660000000     0.0366885  
H82      H      0.798240000000     0.341680000000     0.983290000000     0.0415308  
H83      H      0.749480000000     0.344320000000     0.940700000000     0.0416895  
H84      H      0.753560000000     0.408780000000     0.054580000000     0.0419604  
H85      H      0.706790000000     0.384880000000     0.071640000000     0.0416965  
H86      H      0.702020000000     0.368580000000     0.936430000000     0.0415447  
H87      H      0.799050000000     0.411030000000     0.999380000000     0.0414341  
H88      H      0.797670000000     0.358360000000     0.931020000000     0.0364545  
H89      H      0.702260000000     0.344550000000     0.975690000000     0.0363561  
H90      H      0.704560000000     0.408980000000     0.032810000000     0.0368871  
H91      H      0.644000000000     0.454170000000     0.940400000000     0.0392706  
H92      H      0.643960000000     0.457770000000     0.065520000000     0.0390216  
H93      H      0.628200000000     0.505910000000     0.083570000000     0.0413395  
H94      H      0.627610000000     0.501290000000     0.911790000000     0.0410661  
H95      H      0.642320000000     0.549900000000     0.929430000000     0.0389876  
H96      H      0.612200000000     0.552790000000     0.055900000000     0.0392542  
H97      H      0.612970000000     0.453940000000     0.939990000000     0.0389409  
H98      H      0.612930000000     0.457670000000     0.065810000000     0.0403077  
H99      H      0.643220000000     0.553130000000     0.055100000000     0.0396083  
H100     H      0.611300000000     0.549470000000     0.930560000000     0.0395305  
H101     H      0.453070000000     0.645940000000     0.550760000000     0.0394097  
H102     H      0.454410000000     0.644440000000     0.425320000000     0.0389263  
H103     H      0.502430000000     0.628920000000     0.404830000000     0.0412037  
H104     H      0.500550000000     0.630100000000     0.576820000000     0.0412048  
H105     H      0.548600000000     0.644870000000     0.555720000000     0.0390742  
H106     H      0.549930000000     0.613620000000     0.430210000000     0.0391067  
H107     H      0.453020000000     0.614910000000     0.552480000000     0.039208   
H108     H      0.454500000000     0.613400000000     0.426680000000     0.0398187  
H109     H      0.550120000000     0.644670000000     0.430120000000     0.0394022  
H110     H      0.548270000000     0.613830000000     0.555890000000     0.0398089  
H111     H      0.549580000000     0.644380000000     0.925490000000     0.0389203  
H112     H      0.550920000000     0.645910000000     0.050930000000     0.0394231  
H113     H      0.503450000000     0.630070000000     0.077020000000     0.041234   
H114     H      0.501550000000     0.628880000000     0.905030000000     0.0411757  
H115     H      0.453870000000     0.644630000000     0.930330000000     0.0394014  
H116     H      0.455720000000     0.613810000000     0.056120000000     0.0398377  
H117     H      0.549490000000     0.613350000000     0.926880000000     0.0398134  
H118     H      0.550980000000     0.614880000000     0.052670000000     0.0392162  
H119     H      0.455400000000     0.644840000000     0.055930000000     0.0391008  
H120     H      0.454050000000     0.613590000000     0.930430000000     0.0391108  
H121     H      0.205690000000     0.341720000000     0.482980000000     0.0415677  
H122     H      0.202320000000     0.394570000000     0.551340000000     0.0366933  
H123     H      0.250360000000     0.408830000000     0.554220000000     0.0419346  
H124     H      0.254430000000     0.344370000000     0.440340000000     0.041724   
H125     H      0.301650000000     0.344600000000     0.475300000000     0.0363919  
H126     H      0.299360000000     0.409030000000     0.532420000000     0.0369115  
H127     H      0.206240000000     0.358400000000     0.430710000000     0.036485   
H128     H      0.204860000000     0.411070000000     0.499060000000     0.0415063  
H129     H      0.297130000000     0.384930000000     0.571260000000     0.0417252  
H130     H      0.301890000000     0.368630000000     0.436040000000     0.0415607  
H131     H      0.454140000000     0.395560000000     0.583990000000     0.0388309  
H132     H      0.454680000000     0.397050000000     0.458700000000     0.0400239  
H133     H      0.501890000000     0.381610000000     0.434670000000     0.0411943  
H134     H      0.502560000000     0.379500000000     0.606640000000     0.0412047  
H135     H      0.550950000000     0.394900000000     0.582560000000     0.0388386  
H136     H      0.549000000000     0.365390000000     0.455480000000     0.0394121  
H137     H      0.454240000000     0.364530000000     0.582870000000     0.0391753  
H138     H      0.454820000000     0.366020000000     0.456880000000     0.0395833  
H139     H      0.549470000000     0.396420000000     0.457090000000     0.0400808  
H140     H      0.550490000000     0.363870000000     0.581240000000     0.0391847  
H141     H      0.360020000000     0.457770000000     0.565230000000     0.0390306  
H142     H      0.359980000000     0.454200000000     0.440100000000     0.0392808  
H143     H      0.376400000000     0.501320000000     0.411530000000     0.0410916  
H144     H      0.375810000000     0.505890000000     0.583320000000     0.0413189  
H145     H      0.360810000000     0.553120000000     0.554900000000     0.0395946  
H146     H      0.392720000000     0.549490000000     0.430350000000     0.0395572  
H147     H      0.391040000000     0.457650000000     0.565520000000     0.0403076  
H148     H      0.391010000000     0.453950000000     0.439700000000     0.0389528  
H149     H      0.361700000000     0.549930000000     0.429220000000     0.0390132  
H150     H      0.391840000000     0.552770000000     0.555680000000     0.0392261  
H151     H      0.205310000000     0.341870000000     0.981550000000     0.0414404  
H152     H      0.202150000000     0.394730000000     0.049900000000     0.0366182  
H153     H      0.250060000000     0.409280000000     0.051320000000     0.0418242  
H154     H      0.253720000000     0.344780000000     0.937460000000     0.0417316  
H155     H      0.301130000000     0.345250000000     0.971140000000     0.0363621  
H156     H      0.298940000000     0.409700000000     0.028220000000     0.0368243  
H157     H      0.205310000000     0.358520000000     0.929220000000     0.036476   
H158     H      0.204150000000     0.411230000000     0.997530000000     0.0414709  
H159     H      0.296920000000     0.385670000000     0.067280000000     0.0417995  
H160     H      0.301150000000     0.369340000000     0.932010000000     0.041451   
H161     H      0.549670000000     0.364550000000     0.083140000000     0.0391754  
H162     H      0.549120000000     0.366060000000     0.957130000000     0.0395429  
H163     H      0.502050000000     0.381610000000     0.934880000000     0.0411599  
H164     H      0.501330000000     0.379490000000     0.106860000000     0.0412311  
H165     H      0.453410000000     0.363830000000     0.081390000000     0.0391766  
H166     H      0.454450000000     0.396390000000     0.957260000000     0.0400754  
H167     H      0.549750000000     0.395590000000     0.084250000000     0.0388353  
H168     H      0.549240000000     0.397090000000     0.958980000000     0.0399744  
H169     H      0.454940000000     0.365350000000     0.955640000000     0.0393702  
H170     H      0.452940000000     0.394860000000     0.082730000000     0.038837   
H171     H      0.394000000000     0.551320000000     0.057900000000     0.039811   
H172     H      0.391550000000     0.550710000000     0.932450000000     0.0390132  
H173     H      0.375060000000     0.502510000000     0.912040000000     0.0412581  
H174     H      0.378010000000     0.504480000000     0.083940000000     0.0411274  
H175     H      0.392300000000     0.456690000000     0.062840000000     0.0401393  
H176     H      0.359420000000     0.454790000000     0.939080000000     0.0391111  
H177     H      0.363000000000     0.551830000000     0.060470000000     0.0392783  
H178     H      0.360550000000     0.551160000000     0.934750000000     0.0392729  
H179     H      0.390430000000     0.454470000000     0.937050000000     0.0390394  
H180     H      0.361280000000     0.457060000000     0.064380000000     0.0392312  
H181     H      0.658500000000     0.705390000000     0.468470000000     0.0356283  
H182     H      0.622410000000     0.706540000000     0.570930000000     0.041505   
H183     H      0.597600000000     0.754000000000     0.563290000000     0.0418969  
H184     H      0.657470000000     0.753550000000     0.439600000000     0.0414947  
H185     H      0.661570000000     0.801180000000     0.487140000000     0.0416308  
H186     H      0.593000000000     0.800780000000     0.513010000000     0.0415988  
H187     H      0.633010000000     0.706610000000     0.433180000000     0.0419095  
H188     H      0.596690000000     0.705690000000     0.536260000000     0.036249   
H189     H      0.611410000000     0.802530000000     0.562810000000     0.0364367  
H190     H      0.643220000000     0.801500000000     0.437130000000     0.0363125  
H191     H      0.662490000000     0.801430000000     0.999650000000     0.0415995  
H192     H      0.611650000000     0.803480000000     0.925940000000     0.0364708  
H193     H      0.598550000000     0.754510000000     0.922110000000     0.0419114  
H194     H      0.659710000000     0.752840000000     0.043190000000     0.0413869  
H195     H      0.661140000000     0.705200000000     0.010810000000     0.0355065  
H196     H      0.598580000000     0.705740000000     0.945870000000     0.0360619  
H197     H      0.644600000000     0.800190000000     0.050270000000     0.0364239  
H198     H      0.593720000000     0.800220000000     0.976110000000     0.0414251  
H199     H      0.624040000000     0.707190000000     0.910490000000     0.0410875  
H200     H      0.636210000000     0.705840000000     0.047700000000     0.0424531  
H201     H      0.598690000000     0.897260000000     0.651730000000     0.0397361  
H202     H      0.661530000000     0.894110000000     0.650490000000     0.0390978  
H203     H      0.672650000000     0.878930000000     0.747220000000     0.0412878  
H204     H      0.586640000000     0.883340000000     0.747320000000     0.0411281  
H205     H      0.599010000000     0.899000000000     0.842020000000     0.039597   
H206     H      0.660250000000     0.864760000000     0.843300000000     0.0395009  
H207     H      0.597150000000     0.866260000000     0.653320000000     0.0392268  
H208     H      0.659990000000     0.863120000000     0.652040000000     0.0393222  
H209     H      0.661540000000     0.895770000000     0.843110000000     0.0390098  
H210     H      0.597110000000     0.868010000000     0.842180000000     0.0394715  
H211     H      0.592550000000     0.889330000000     0.150840000000     0.0391729  
H212     H      0.655700000000     0.892290000000     0.152240000000     0.04001    
H213     H      0.667520000000     0.878250000000     0.247240000000     0.0409951  
H214     H      0.581500000000     0.874200000000     0.247090000000     0.0412133  
H215     H      0.592490000000     0.891350000000     0.342300000000     0.0390477  
H216     H      0.656840000000     0.863380000000     0.342870000000     0.039105   
H217     H      0.594300000000     0.858350000000     0.151280000000     0.0391231  
H218     H      0.656840000000     0.861270000000     0.152640000000     0.0388647  
H219     H      0.655330000000     0.894380000000     0.341120000000     0.0397816  
H220     H      0.593990000000     0.860360000000     0.344010000000     0.03929    
H221     H      0.593250000000     0.301690000000     0.493060000000     0.0367547  
H222     H      0.633690000000     0.302390000000     0.588810000000     0.0412624  
H223     H      0.657570000000     0.254490000000     0.581370000000     0.0417287  
H224     H      0.592840000000     0.252940000000     0.467910000000     0.0418452  
H225     H      0.590450000000     0.206330000000     0.519570000000     0.0414696  
H226     H      0.659810000000     0.206690000000     0.535020000000     0.0415672  
H227     H      0.617050000000     0.299430000000     0.453560000000     0.0420223  
H228     H      0.657790000000     0.302150000000     0.549710000000     0.0363507  
H229     H      0.643210000000     0.206070000000     0.587390000000     0.0364723  
H230     H      0.606760000000     0.204950000000     0.466880000000     0.0366787  
H231     H      0.595480000000     0.957540000000     0.467740000000     0.0392577  
H232     H      0.657910000000     0.957700000000     0.467020000000     0.0389572  
H233     H      0.669730000000     0.003950000000     0.507210000000     0.0411755  
H234     H      0.583600000000     0.003620000000     0.508930000000     0.041144   
H235     H      0.594670000000     0.052700000000     0.488260000000     0.0394096  
H236     H      0.658050000000     0.049900000000     0.548120000000     0.0390958  
H237     H      0.595170000000     0.954810000000     0.529480000000     0.0395131  
H238     H      0.658580000000     0.955030000000     0.528750000000     0.0399379  
H239     H      0.657890000000     0.053010000000     0.486460000000     0.0397096  
H240     H      0.595440000000     0.049530000000     0.549890000000     0.0392945  
H241     H      0.592020000000     0.301730000000     0.996950000000     0.0367203  
H242     H      0.632420000000     0.302030000000     0.092470000000     0.0411448  
H243     H      0.656910000000     0.254390000000     0.083180000000     0.0417536  
H244     H      0.592170000000     0.253210000000     0.969750000000     0.0418773  
H245     H      0.590350000000     0.206040000000     0.019300000000     0.0416233  
H246     H      0.659700000000     0.207070000000     0.034760000000     0.0414061  
H247     H      0.615750000000     0.300020000000     0.957160000000     0.0422681  
H248     H      0.656570000000     0.302350000000     0.053520000000     0.0363758  
H249     H      0.643190000000     0.205700000000     0.087170000000     0.0364598  
H250     H      0.606730000000     0.205420000000     0.966650000000     0.0366071  
H251     H      0.656930000000     0.111880000000     0.679650000000     0.0397307  
H252     H      0.594180000000     0.112050000000     0.680050000000     0.0389121  
H253     H      0.582850000000     0.128170000000     0.775220000000     0.0411269  
H254     H      0.668980000000     0.128790000000     0.774140000000     0.0411189  
H255     H      0.658030000000     0.114490000000     0.870340000000     0.0390502  
H256     H      0.594540000000     0.144430000000     0.869890000000     0.0388047  
H257     H      0.657210000000     0.142910000000     0.678470000000     0.0391388  
H258     H      0.594120000000     0.143090000000     0.679140000000     0.039546   
H259     H      0.594950000000     0.113400000000     0.870740000000     0.039907   
H260     H      0.657300000000     0.145530000000     0.869200000000     0.0393223  
H261     H      0.657310000000     0.146130000000     0.369300000000     0.0392863  
H262     H      0.594600000000     0.145070000000     0.370010000000     0.0387542  
H263     H      0.582860000000     0.128860000000     0.275260000000     0.0411284  
H264     H      0.668990000000     0.129420000000     0.274130000000     0.0411087  
H265     H      0.657200000000     0.143520000000     0.178390000000     0.0390777  
H266     H      0.594140000000     0.112710000000     0.180180000000     0.0389055  
H267     H      0.658070000000     0.115100000000     0.370240000000     0.0390336  
H268     H      0.594950000000     0.114040000000     0.370650000000     0.0399262  
H269     H      0.594150000000     0.143750000000     0.179090000000     0.0395166  
H270     H      0.656940000000     0.112490000000     0.179740000000     0.039723   
H271     H      0.595420000000     0.050020000000     0.052850000000     0.0393518  
H272     H      0.658100000000     0.050380000000     0.050320000000     0.0391205  
H273     H      0.669660000000     0.003770000000     0.012030000000     0.0411523  
H274     H      0.583540000000     0.003360000000     0.015110000000     0.0411726  
H275     H      0.595500000000     0.954560000000     0.038140000000     0.0394538  
H276     H      0.657930000000     0.957250000000     0.974400000000     0.0393624  
H277     H      0.594540000000     0.052080000000     0.991040000000     0.0393355  
H278     H      0.657690000000     0.052400000000     0.988480000000     0.039543   
H279     H      0.658500000000     0.954880000000     0.036180000000     0.0393323  
H280     H      0.595090000000     0.956960000000     0.976350000000     0.0391562  
H281     H      0.297790000000     0.622910000000     0.413150000000     0.0411813  
H282     H      0.299220000000     0.659950000000     0.513820000000     0.0355755  
H283     H      0.251740000000     0.657430000000     0.546430000000     0.0414364  
H284     H      0.251200000000     0.596480000000     0.424810000000     0.04188    
H285     H      0.202180000000     0.608630000000     0.428540000000     0.0364983  
H286     H      0.204580000000     0.641360000000     0.553210000000     0.036375   
H287     H      0.299970000000     0.597470000000     0.448470000000     0.036168   
H288     H      0.299340000000     0.634900000000     0.550430000000     0.0422971  
H289     H      0.203260000000     0.659450000000     0.502870000000     0.041821   
H290     H      0.205520000000     0.590720000000     0.478740000000     0.0413856  
H291     H      0.299940000000     0.659930000000     0.970860000000     0.0355806  
H292     H      0.299510000000     0.623720000000     0.072880000000     0.0412402  
H293     H      0.252870000000     0.597200000000     0.063970000000     0.0418891  
H294     H      0.252110000000     0.657230000000     0.940560000000     0.0415037  
H295     H      0.204170000000     0.659660000000     0.986470000000     0.0418139  
H296     H      0.206570000000     0.591090000000     0.012210000000     0.0414022  
H297     H      0.299730000000     0.634540000000     0.935190000000     0.0422478  
H298     H      0.301390000000     0.598010000000     0.038280000000     0.0361678  
H299     H      0.203860000000     0.609340000000     0.062080000000     0.0363964  
H300     H      0.204820000000     0.641280000000     0.936520000000     0.0363258  
H301     H      0.142180000000     0.653660000000     0.651020000000     0.0390787  
H302     H      0.145720000000     0.590910000000     0.649830000000     0.0392297  
H303     H      0.131140000000     0.578190000000     0.746210000000     0.0412581  
H304     H      0.126260000000     0.664220000000     0.746090000000     0.0409687  
H305     H      0.142460000000     0.653760000000     0.841000000000     0.0390601  
H306     H      0.115090000000     0.589130000000     0.842150000000     0.0390621  
H307     H      0.111200000000     0.652000000000     0.651640000000     0.0398863  
H308     H      0.114760000000     0.589060000000     0.650450000000     0.0391164  
H309     H      0.146060000000     0.591000000000     0.842330000000     0.0392205  
H310     H      0.111480000000     0.652070000000     0.840780000000     0.0398843  
H311     H      0.110880000000     0.658130000000     0.342120000000     0.0390147  
H312     H      0.108250000000     0.595400000000     0.340780000000     0.0396006  
H313     H      0.123790000000     0.583340000000     0.246060000000     0.0410391  
H314     H      0.127350000000     0.669440000000     0.246270000000     0.0412901  
H315     H      0.111980000000     0.658240000000     0.149720000000     0.0390867  
H316     H      0.140430000000     0.594090000000     0.151900000000     0.0391977  
H317     H      0.141890000000     0.656990000000     0.342300000000     0.0394078  
H318     H      0.139250000000     0.593930000000     0.340940000000     0.0392389  
H319     H      0.109430000000     0.595370000000     0.150790000000     0.0397182  
H320     H      0.142970000000     0.657020000000     0.150790000000     0.0393296  
H321     H      0.704480000000     0.623760000000     0.572680000000     0.0412127  
H322     H      0.704060000000     0.659960000000     0.470640000000     0.0356152  
H323     H      0.751890000000     0.657260000000     0.440380000000     0.0415536  
H324     H      0.751110000000     0.597240000000     0.563820000000     0.0418267  
H325     H      0.800120000000     0.609380000000     0.561970000000     0.0363374  
H326     H      0.799190000000     0.641310000000     0.436390000000     0.0364067  
H327     H      0.702600000000     0.598050000000     0.538090000000     0.0361374  
H328     H      0.704270000000     0.634560000000     0.434980000000     0.0422737  
H329     H      0.799820000000     0.659700000000     0.486330000000     0.0418808  
H330     H      0.797420000000     0.591130000000     0.512100000000     0.0413613  
H331     H      0.048970000000     0.654480000000     0.529720000000     0.0391954  
H332     H      0.049120000000     0.591720000000     0.529840000000     0.039298   
H333     H      0.001520000000     0.579930000000     0.496830000000     0.0411611  
H334     H      0.001540000000     0.666110000000     0.496900000000     0.0411567  
H335     H      0.953620000000     0.654630000000     0.525940000000     0.0396929  
H336     H      0.953980000000     0.591730000000     0.463760000000     0.0393203  
H337     H      0.049400000000     0.654640000000     0.467750000000     0.0397588  
H338     H      0.049570000000     0.591490000000     0.467880000000     0.0392618  
H339     H      0.953400000000     0.591530000000     0.525720000000     0.0392326  
H340     H      0.954180000000     0.654540000000     0.463970000000     0.0392079  
H341     H      0.704770000000     0.659980000000     0.013850000000     0.0355611  
H342     H      0.706180000000     0.622930000000     0.913200000000     0.0411499  
H343     H      0.752780000000     0.596510000000     0.924830000000     0.0418624  
H344     H      0.752260000000     0.657480000000     0.046410000000     0.0414807  
H345     H      0.800730000000     0.659490000000     0.002810000000     0.0418787  
H346     H      0.798470000000     0.590760000000     0.978710000000     0.0413413  
H347     H      0.704670000000     0.634930000000     0.050480000000     0.0422708  
H348     H      0.704020000000     0.597490000000     0.948530000000     0.036144   
H349     H      0.801810000000     0.608670000000     0.928500000000     0.0364652  
H350     H      0.799430000000     0.641410000000     0.053160000000     0.0364188  
H351     H      0.892010000000     0.658260000000     0.649650000000     0.039076   
H352     H      0.894530000000     0.595390000000     0.650720000000     0.0397116  
H353     H      0.880180000000     0.583360000000     0.746000000000     0.0410372  
H354     H      0.876630000000     0.669470000000     0.746200000000     0.0412739  
H355     H      0.893110000000     0.658150000000     0.842050000000     0.0389843  
H356     H      0.864730000000     0.593960000000     0.840880000000     0.039274   
H357     H      0.861010000000     0.657050000000     0.650720000000     0.0393091  
H358     H      0.863530000000     0.594120000000     0.651830000000     0.03917    
H359     H      0.895730000000     0.595420000000     0.840700000000     0.0396323  
H360     H      0.862100000000     0.657020000000     0.842240000000     0.0393771  
H361     H      0.858270000000     0.590940000000     0.149770000000     0.0392037  
H362     H      0.861830000000     0.653690000000     0.150960000000     0.0390365  
H363     H      0.877760000000     0.664250000000     0.246020000000     0.0409563  
H364     H      0.872870000000     0.578220000000     0.246140000000     0.0412684  
H365     H      0.857950000000     0.591030000000     0.342260000000     0.0392355  
H366     H      0.892540000000     0.652090000000     0.340720000000     0.0398608  
H367     H      0.889240000000     0.589080000000     0.150370000000     0.0390935  
H368     H      0.892810000000     0.652030000000     0.151570000000     0.0398324  
H369     H      0.861560000000     0.653790000000     0.340940000000     0.0390264  
H370     H      0.888920000000     0.589160000000     0.342080000000     0.039079   
H371     H      0.050010000000     0.591720000000     0.963760000000     0.0393184  
H372     H      0.049830000000     0.654530000000     0.963980000000     0.0392452  
H373     H      0.002460000000     0.666110000000     0.996860000000     0.0411573  
H374     H      0.002470000000     0.579930000000     0.996800000000     0.0411404  
H375     H      0.954420000000     0.591500000000     0.967800000000     0.0392648  
H376     H      0.955030000000     0.654490000000     0.029640000000     0.039306   
H377     H      0.050580000000     0.591520000000     0.025730000000     0.0393155  
H378     H      0.050380000000     0.654620000000     0.025950000000     0.0398112  
H379     H      0.954600000000     0.654650000000     0.967670000000     0.0397901  
H380     H      0.954870000000     0.591730000000     0.029770000000     0.0393739  
H381     H      0.371430000000     0.302030000000     0.592100000000     0.0411185  
H382     H      0.411830000000     0.301700000000     0.496590000000     0.0367036  
H383     H      0.411640000000     0.253190000000     0.469390000000     0.0418477  
H384     H      0.346890000000     0.254410000000     0.582800000000     0.0417308  
H385     H      0.360580000000     0.205730000000     0.586800000000     0.0365146  
H386     H      0.397050000000     0.205400000000     0.466280000000     0.0366091  
H387     H      0.347280000000     0.302380000000     0.553150000000     0.0363413  
H388     H      0.388100000000     0.300030000000     0.456800000000     0.0422441  
H389     H      0.413430000000     0.206030000000     0.518930000000     0.0415537  
H390     H      0.344080000000     0.207090000000     0.534380000000     0.041439   
H391     H      0.343980000000     0.206680000000     0.034800000000     0.0415227  
H392     H      0.397040000000     0.204930000000     0.966700000000     0.0366252  
H393     H      0.411010000000     0.252910000000     0.967850000000     0.0419341  
H394     H      0.346250000000     0.254460000000     0.081240000000     0.0416887  
H395     H      0.346090000000     0.302140000000     0.049680000000     0.036353   
H396     H      0.410640000000     0.301630000000     0.993090000000     0.0367998  
H397     H      0.360570000000     0.206020000000     0.087190000000     0.0364292  
H398     H      0.413340000000     0.206260000000     0.019400000000     0.0415163  
H399     H      0.386840000000     0.299420000000     0.953560000000     0.0420819  
H400     H      0.370170000000     0.302330000000     0.088800000000     0.0412486  
H401     H      0.345710000000     0.115090000000     0.870000000000     0.0390073  
H402     H      0.408820000000     0.114020000000     0.870410000000     0.039867   
H403     H      0.420910000000     0.128880000000     0.775040000000     0.0411135  
H404     H      0.334780000000     0.129450000000     0.773910000000     0.0411051  
H405     H      0.346820000000     0.112550000000     0.679510000000     0.039731   
H406     H      0.409620000000     0.143800000000     0.678880000000     0.0394944  
H407     H      0.346460000000     0.146130000000     0.869110000000     0.0392767  
H408     H      0.409180000000     0.145060000000     0.869800000000     0.03871    
H409     H      0.409630000000     0.112760000000     0.679940000000     0.0388962  
H410     H      0.346570000000     0.143590000000     0.678180000000     0.0390749  
H411     H      0.409230000000     0.144370000000     0.369660000000     0.0387889  
H412     H      0.346470000000     0.145470000000     0.368980000000     0.0393621  
H413     H      0.334790000000     0.128740000000     0.273920000000     0.0411273  
H414     H      0.420920000000     0.128110000000     0.275000000000     0.041122   
H415     H      0.409650000000     0.143040000000     0.178930000000     0.0395244  
H416     H      0.346840000000     0.111840000000     0.179410000000     0.039731   
H417     H      0.408810000000     0.113340000000     0.370520000000     0.0398835  
H418     H      0.345740000000     0.114440000000     0.370120000000     0.0390572  
H419     H      0.346560000000     0.142870000000     0.178250000000     0.0391124  
H420     H      0.409590000000     0.112000000000     0.179820000000     0.0389026  
H421     H      0.392200000000     0.803520000000     0.426100000000     0.0364993  
H422     H      0.341370000000     0.801400000000     0.499800000000     0.04172    
H423     H      0.344180000000     0.752790000000     0.543250000000     0.0414338  
H424     H      0.405330000000     0.754560000000     0.422160000000     0.0418969  
H425     H      0.379880000000     0.707220000000     0.410470000000     0.0410759  
H426     H      0.367710000000     0.705810000000     0.547680000000     0.0424604  
H427     H      0.410140000000     0.800240000000     0.476250000000     0.041452   
H428     H      0.359250000000     0.800150000000     0.550420000000     0.0364465  
H429     H      0.342790000000     0.705160000000     0.510790000000     0.0355053  
H430     H      0.405350000000     0.705790000000     0.445840000000     0.0360275  
H431     H      0.345840000000     0.957210000000     0.474690000000     0.0394556  
H432     H      0.408690000000     0.956950000000     0.476640000000     0.03929    
H433     H      0.420230000000     0.003370000000     0.515240000000     0.0411652  
H434     H      0.334110000000     0.003760000000     0.512160000000     0.0411245  
H435     H      0.346080000000     0.052380000000     0.488430000000     0.0395972  
H436     H      0.408350000000     0.050060000000     0.552810000000     0.0393383  
H437     H      0.345290000000     0.954890000000     0.536480000000     0.0393338  
H438     H      0.408270000000     0.954590000000     0.538430000000     0.0394963  
H439     H      0.409220000000     0.052060000000     0.490990000000     0.0393979  
H440     H      0.345670000000     0.050400000000     0.550280000000     0.0391015  
H441     H      0.410840000000     0.800770000000     0.013390000000     0.041646   
H442     H      0.360610000000     0.801460000000     0.937490000000     0.0362795  
H443     H      0.346430000000     0.753490000000     0.939920000000     0.0414602  
H444     H      0.406300000000     0.753980000000     0.063610000000     0.041928   
H445     H      0.407270000000     0.705670000000     0.036530000000     0.036249   
H446     H      0.345460000000     0.705320000000     0.968720000000     0.0355908  
H447     H      0.392430000000     0.802490000000     0.063180000000     0.0364527  
H448     H      0.342280000000     0.801100000000     0.987520000000     0.0415826  
H449     H      0.370950000000     0.706590000000     0.933440000000     0.0418753  
H450     H      0.381550000000     0.706490000000     0.071190000000     0.0415095  
H451     H      0.348100000000     0.892220000000     0.652520000000     0.0400373  
H452     H      0.411260000000     0.889300000000     0.651120000000     0.0391053  
H453     H      0.422320000000     0.874150000000     0.747350000000     0.0411753  
H454     H      0.336290000000     0.878150000000     0.747500000000     0.0410147  
H455     H      0.348470000000     0.894260000000     0.841380000000     0.039846   
H456     H      0.409830000000     0.860280000000     0.844280000000     0.0391987  
H457     H      0.346980000000     0.861200000000     0.652880000000     0.0388772  
H458     H      0.409530000000     0.858310000000     0.651520000000     0.0390275  
H459     H      0.411310000000     0.891270000000     0.842570000000     0.0389741  
H460     H      0.346980000000     0.863270000000     0.843130000000     0.0391513  
H461     H      0.404790000000     0.899050000000     0.342290000000     0.0395889  
H462     H      0.342260000000     0.895790000000     0.343380000000     0.0389762  
H463     H      0.331160000000     0.878930000000     0.247490000000     0.0412877  
H464     H      0.417170000000     0.883390000000     0.247580000000     0.0411365  
H465     H      0.405100000000     0.897290000000     0.151980000000     0.039768   
H466     H      0.343820000000     0.863120000000     0.152320000000     0.0393112  
H467     H      0.406710000000     0.868060000000     0.342430000000     0.0394765  
H468     H      0.343570000000     0.864770000000     0.343560000000     0.0394901  
H469     H      0.342280000000     0.894110000000     0.150750000000     0.0391115  
H470     H      0.406670000000     0.866300000000     0.153590000000     0.0392516  
H471     H      0.408620000000     0.954790000000     0.029580000000     0.0395867  
H472     H      0.345210000000     0.955000000000     0.028860000000     0.0400565  
H473     H      0.334040000000     0.003910000000     0.007160000000     0.0412033  
H474     H      0.420170000000     0.003590000000     0.008870000000     0.0411735  
H475     H      0.408330000000     0.049520000000     0.049700000000     0.0392953  
H476     H      0.345880000000     0.052960000000     0.986250000000     0.0395719  
H477     H      0.408300000000     0.957480000000     0.967830000000     0.0392608  
H478     H      0.345870000000     0.957620000000     0.967110000000     0.0389976  
H479     H      0.345710000000     0.049880000000     0.047930000000     0.0390397  
H480     H      0.409090000000     0.052660000000     0.988050000000     0.0393248  
N1       N      0.875660000000     0.375730000000     0.853830000000    -0.181559   
N2       N      0.877180000000     0.375000000000     0.620450000000    -0.18147    
N3       N      0.877180000000     0.374980000000     0.120440000000    -0.18148    
N4       N      0.876630000000     0.375750000000     0.353820000000    -0.181479   
N5       N      0.943790000000     0.374630000000     0.486220000000    -0.18106    
N6       N      0.060700000000     0.374630000000     0.485350000000    -0.181184   
N7       N      0.126780000000     0.375010000000     0.620230000000    -0.181586   
N8       N      0.127300000000     0.375760000000     0.853610000000    -0.181472   
N9       N      0.126730000000     0.375020000000     0.120240000000    -0.181498   
N10      N      0.128220000000     0.375750000000     0.353620000000    -0.181577   
N11      N      0.943220000000     0.374630000000     0.985460000000    -0.181235   
N12      N      0.060130000000     0.374640000000     0.986010000000    -0.181041   
N13      N      0.693760000000     0.377540000000     0.501030000000    -0.181054   
N14      N      0.810330000000     0.376400000000     0.488920000000    -0.181217   
N15      N      0.628080000000     0.445100000000     0.501510000000    -0.181217   
N16      N      0.626620000000     0.561980000000     0.496010000000    -0.181456   
N17      N      0.693290000000     0.376830000000     0.005570000000    -0.180973   
N18      N      0.809770000000     0.376310000000     0.990150000000    -0.181111   
N19      N      0.627180000000     0.562000000000     0.991660000000    -0.181377   
N20      N      0.628370000000     0.445210000000     0.004160000000    -0.180949   
N21      N      0.559900000000     0.629140000000     0.493510000000    -0.181388   
N22      N      0.443070000000     0.629580000000     0.488360000000    -0.181551   
N23      N      0.444090000000     0.629110000000     0.993730000000    -0.181366   
N24      N      0.560920000000     0.629540000000     0.988540000000    -0.181548   
N25      N      0.310630000000     0.376880000000     0.505180000000    -0.180976   
N26      N      0.194140000000     0.376350000000     0.489850000000    -0.181186   
N27      N      0.560670000000     0.379920000000     0.518530000000    -0.181026   
N28      N      0.443770000000     0.380600000000     0.520380000000    -0.180988   
N29      N      0.376840000000     0.562010000000     0.491460000000    -0.181381   
N30      N      0.375600000000     0.445210000000     0.503860000000    -0.181072   
N31      N      0.310160000000     0.377530000000     0.001020000000    -0.181048   
N32      N      0.193590000000     0.376430000000     0.988730000000    -0.181194   
N33      N      0.443250000000     0.379890000000     0.018690000000    -0.181009   
N34      N      0.560150000000     0.380630000000     0.020650000000    -0.181001   
N35      N      0.375860000000     0.445070000000     0.001630000000    -0.181148   
N36      N      0.377380000000     0.561940000000     0.996200000000    -0.181483   
N37      N      0.627170000000     0.812130000000     0.499470000000    -0.181387   
N38      N      0.627460000000     0.695420000000     0.502000000000    -0.181464   
N39      N      0.629730000000     0.695330000000     0.978690000000    -0.181165   
N40      N      0.627770000000     0.811940000000     0.989590000000    -0.181119   
N41      N      0.629360000000     0.881670000000     0.864000000000    -0.181193   
N42      N      0.629210000000     0.879910000000     0.630550000000    -0.181308   
N43      N      0.624760000000     0.877660000000     0.363940000000    -0.181051   
N44      N      0.624970000000     0.875500000000     0.130370000000    -0.181022   
N45      N      0.625170000000     0.195370000000     0.527310000000    -0.181369   
N46      N      0.625710000000     0.312040000000     0.520090000000    -0.181318   
N47      N      0.626470000000     0.061950000000     0.519850000000    -0.181477   
N48      N      0.626810000000     0.945580000000     0.497210000000    -0.181363   
N49      N      0.625200000000     0.195410000000     0.026710000000    -0.181304   
N50      N      0.624420000000     0.312170000000     0.024070000000    -0.180984   
N51      N      0.626260000000     0.129500000000     0.891380000000    -0.181392   
N52      N      0.625550000000     0.127440000000     0.657990000000    -0.181388   
N53      N      0.625550000000     0.128010000000     0.158020000000    -0.181459   
N54      N      0.626290000000     0.130050000000     0.391380000000    -0.181487   
N55      N      0.626790000000     0.945250000000     0.004750000000    -0.181198   
N56      N      0.626390000000     0.061900000000     0.021690000000    -0.181122   
N57      N      0.193280000000     0.624600000000     0.492130000000    -0.181371   
N58      N      0.309710000000     0.628850000000     0.481220000000    -0.181301   
N59      N      0.194240000000     0.624910000000     0.998540000000    -0.181522   
N60      N      0.310780000000     0.629140000000     0.004180000000    -0.181371   
N61      N      0.128660000000     0.621610000000     0.862920000000    -0.181167   
N62      N      0.128270000000     0.621510000000     0.629370000000    -0.181246   
N63      N      0.126420000000     0.626060000000     0.129470000000    -0.1814     
N64      N      0.125170000000     0.625980000000     0.362870000000    -0.181531   
N65      N      0.809750000000     0.624940000000     0.498430000000    -0.181283   
N66      N      0.693220000000     0.629170000000     0.503980000000    -0.181316   
N67      N      0.943120000000     0.623150000000     0.494690000000    -0.181412   
N68      N      0.059940000000     0.623110000000     0.498770000000    -0.181398   
N69      N      0.810710000000     0.624640000000     0.992080000000    -0.181335   
N70      N      0.694270000000     0.628870000000     0.981290000000    -0.181502   
N71      N      0.878810000000     0.626010000000     0.862800000000    -0.181392   
N72      N      0.877560000000     0.626090000000     0.629400000000    -0.181422   
N73      N      0.875360000000     0.621640000000     0.362860000000    -0.18124    
N74      N      0.875730000000     0.621540000000     0.129310000000    -0.181198   
N75      N      0.944050000000     0.623120000000     0.998690000000    -0.181386   
N76      N      0.060880000000     0.623130000000     0.994710000000    -0.181401   
N77      N      0.378580000000     0.195420000000     0.526360000000    -0.181189   
N78      N      0.379440000000     0.312180000000     0.523710000000    -0.181176   
N79      N      0.378180000000     0.312000000000     0.020110000000    -0.181123   
N80      N      0.378620000000     0.195330000000     0.027100000000    -0.181436   
N81      N      0.378220000000     0.128070000000     0.657800000000    -0.18149    
N82      N      0.377480000000     0.130040000000     0.891160000000    -0.181587   
N83      N      0.378220000000     0.127400000000     0.157770000000    -0.181481   
N84      N      0.377510000000     0.129450000000     0.391160000000    -0.181412   
N85      N      0.374210000000     0.695340000000     0.478650000000    -0.181105   
N86      N      0.376080000000     0.811940000000     0.489770000000    -0.181058   
N87      N      0.377370000000     0.061910000000     0.521610000000    -0.18129    
N88      N      0.376990000000     0.945240000000     0.505050000000    -0.181172   
N89      N      0.376510000000     0.695390000000     0.002240000000    -0.181362   
N90      N      0.376660000000     0.812090000000     0.999840000000    -0.181528   
N91      N      0.379050000000     0.877570000000     0.864210000000    -0.181144   
N92      N      0.378850000000     0.875460000000     0.630630000000    -0.181049   
N93      N      0.374600000000     0.879920000000     0.130820000000    -0.181299   
N94      N      0.374450000000     0.881690000000     0.364270000000    -0.181328   
N95      N      0.377300000000     0.061910000000     0.019630000000    -0.181393   
N96      N      0.376980000000     0.945540000000     0.997340000000    -0.181163   
O1       O      0.394770000000     0.880160000000     0.063950000000    -0.558569   
O2       O      0.397250000000     0.877300000000     0.933880000000    -0.554029   
O3       O      0.396110000000     0.911320000000     0.996480000000    -0.556841   
O4       O      0.395860000000     0.846160000000     0.003000000000    -0.556401   
O5       O      0.357720000000     0.846190000000     0.994090000000    -0.557624   
O6       O      0.357700000000     0.911390000000     0.996920000000    -0.557168   
O7       O      0.358930000000     0.879240000000     0.931070000000    -0.558836   
O8       O      0.356440000000     0.878350000000     0.061230000000    -0.554834   
O9       O      0.397040000000     0.875800000000     0.560950000000    -0.553458   
O10      O      0.394590000000     0.881160000000     0.431180000000    -0.558088   
O11      O      0.396030000000     0.910990000000     0.501260000000    -0.555744   
O12      O      0.395530000000     0.845960000000     0.489400000000    -0.555051   
O13      O      0.357380000000     0.846030000000     0.498270000000    -0.557657   
O14      O      0.357630000000     0.911230000000     0.500610000000    -0.557106   
O15      O      0.356260000000     0.879400000000     0.433730000000    -0.55512    
O16      O      0.358720000000     0.877850000000     0.563860000000    -0.558763   
O17      O      0.396790000000     0.128520000000     0.958990000000    -0.559547   
O18      O      0.397280000000     0.128410000000     0.089190000000    -0.556409   
O19      O      0.396740000000     0.095870000000     0.023690000000    -0.558255   
O20      O      0.397320000000     0.161050000000     0.023030000000    -0.558271   
O21      O      0.359030000000     0.161420000000     0.029100000000    -0.556011   
O22      O      0.358350000000     0.096250000000     0.021800000000    -0.556408   
O23      O      0.358900000000     0.127300000000     0.089870000000    -0.558584   
O24      O      0.358440000000     0.130370000000     0.959790000000    -0.555658   
O25      O      0.396820000000     0.128250000000     0.459020000000    -0.559013   
O26      O      0.397290000000     0.128810000000     0.589230000000    -0.556409   
O27      O      0.396800000000     0.095930000000     0.524450000000    -0.557816   
O28      O      0.397300000000     0.161120000000     0.522440000000    -0.557817   
O29      O      0.359020000000     0.161480000000     0.528530000000    -0.55546    
O30      O      0.358410000000     0.096250000000     0.522470000000    -0.556007   
O31      O      0.358910000000     0.127650000000     0.589900000000    -0.558541   
O32      O      0.358460000000     0.130090000000     0.459780000000    -0.555307   
O33      O      0.875380000000     0.603330000000     0.059640000000    -0.553768   
O34      O      0.878900000000     0.605810000000     0.929650000000    -0.558487   
O35      O      0.909710000000     0.604180000000     0.997840000000    -0.556034   
O36      O      0.844590000000     0.605020000000     0.989870000000    -0.555659   
O37      O      0.844960000000     0.643190000000     0.998750000000    -0.558882   
O38      O      0.910080000000     0.642600000000     0.997370000000    -0.55868    
O39      O      0.877400000000     0.644180000000     0.932370000000    -0.555779   
O40      O      0.877630000000     0.641660000000     0.062480000000    -0.559537   
O41      O      0.877640000000     0.605930000000     0.562540000000    -0.558772   
O42      O      0.874670000000     0.603470000000     0.432520000000    -0.553983   
O43      O      0.908740000000     0.604250000000     0.494910000000    -0.555542   
O44      O      0.843560000000     0.605250000000     0.501720000000    -0.555356   
O45      O      0.844080000000     0.643410000000     0.492790000000    -0.558815   
O46      O      0.909180000000     0.642670000000     0.495410000000    -0.558755   
O47      O      0.877040000000     0.641790000000     0.429690000000    -0.559242   
O48      O      0.876230000000     0.644300000000     0.559840000000    -0.55542    
O49      O      0.129330000000     0.603440000000     0.932590000000    -0.55409    
O50      O      0.126340000000     0.605910000000     0.062600000000    -0.558646   
O51      O      0.095250000000     0.604230000000     0.994960000000    -0.555668   
O52      O      0.160430000000     0.605220000000     0.001810000000    -0.555416   
O53      O      0.159920000000     0.643370000000     0.992880000000    -0.558911   
O54      O      0.094820000000     0.642650000000     0.995460000000    -0.558825   
O55      O      0.127760000000     0.644280000000     0.059910000000    -0.555286   
O56      O      0.126970000000     0.641760000000     0.929760000000    -0.559241   
O57      O      0.125090000000     0.605790000000     0.429710000000    -0.558632   
O58      O      0.128610000000     0.603310000000     0.559710000000    -0.553979   
O59      O      0.094280000000     0.604160000000     0.497910000000    -0.555967   
O60      O      0.159400000000     0.604990000000     0.489930000000    -0.555886   
O61      O      0.159040000000     0.643150000000     0.498810000000    -0.558814   
O62      O      0.093920000000     0.642580000000     0.497450000000    -0.558737   
O63      O      0.126370000000     0.641630000000     0.562550000000    -0.559776   
O64      O      0.126590000000     0.644150000000     0.432430000000    -0.555865   
O65      O      0.606470000000     0.128780000000     0.089450000000    -0.556045   
O66      O      0.606950000000     0.128280000000     0.959250000000    -0.559058   
O67      O      0.606970000000     0.095920000000     0.024610000000    -0.557697   
O68      O      0.606470000000     0.161120000000     0.022730000000    -0.557741   
O69      O      0.644750000000     0.161470000000     0.028810000000    -0.55556    
O70      O      0.645360000000     0.096250000000     0.022630000000    -0.555715   
O71      O      0.645310000000     0.130110000000     0.960000000000    -0.555143   
O72      O      0.644860000000     0.127610000000     0.090130000000    -0.558333   
O73      O      0.606490000000     0.128450000000     0.589420000000    -0.556223   
O74      O      0.606980000000     0.128550000000     0.459210000000    -0.55939    
O75      O      0.607030000000     0.095910000000     0.523920000000    -0.558472   
O76      O      0.606460000000     0.161080000000     0.523250000000    -0.558395   
O77      O      0.644740000000     0.161450000000     0.529310000000    -0.556217   
O78      O      0.645420000000     0.096280000000     0.522030000000    -0.556426   
O79      O      0.645340000000     0.130390000000     0.460010000000    -0.555327   
O80      O      0.644880000000     0.127340000000     0.590090000000    -0.558315   
O81      O      0.609220000000     0.881140000000     0.930920000000    -0.558038   
O82      O      0.606780000000     0.875810000000     0.060690000000    -0.553348   
O83      O      0.607770000000     0.910990000000     0.000970000000    -0.555602   
O84      O      0.608300000000     0.845960000000     0.989170000000    -0.554811   
O85      O      0.646450000000     0.846050000000     0.998040000000    -0.557651   
O86      O      0.646170000000     0.911240000000     0.000320000000    -0.557307   
O87      O      0.645100000000     0.877880000000     0.063590000000    -0.558671   
O88      O      0.647560000000     0.879400000000     0.933460000000    -0.554994   
O89      O      0.606550000000     0.877360000000     0.433610000000    -0.553879   
O90      O      0.609040000000     0.880170000000     0.563690000000    -0.558552   
O91      O      0.607690000000     0.911350000000     0.496270000000    -0.556792   
O92      O      0.607960000000     0.846190000000     0.502680000000    -0.556714   
O93      O      0.646100000000     0.846240000000     0.493770000000    -0.55758    
O94      O      0.646090000000     0.911450000000     0.496710000000    -0.557141   
O95      O      0.647370000000     0.878370000000     0.560960000000    -0.554812   
O96      O      0.644880000000     0.879310000000     0.430810000000    -0.558559   
O97      O      0.375760000000     0.409600000000     0.967470000000    -0.553473   
O98      O      0.380910000000     0.344690000000     0.977670000000    -0.557019   
O99      O      0.345600000000     0.374080000000     0.968320000000    -0.555448   
O100     O      0.410350000000     0.379540000000     0.976720000000    -0.559629   
O101     O      0.407870000000     0.378770000000     0.053240000000    -0.55166    
O102     O      0.342770000000     0.381550000000     0.043320000000    -0.555535   
O103     O      0.373450000000     0.347330000000     0.052710000000    -0.554823   
O104     O      0.376560000000     0.412270000000     0.043970000000    -0.558812   
O105     O      0.375820000000     0.409620000000     0.470420000000    -0.554616   
O106     O      0.381600000000     0.344820000000     0.481010000000    -0.558106   
O107     O      0.345990000000     0.373830000000     0.472030000000    -0.556779   
O108     O      0.410660000000     0.379930000000     0.479210000000    -0.561203   
O109     O      0.408570000000     0.379410000000     0.555790000000    -0.550084   
O110     O      0.343350000000     0.381390000000     0.547030000000    -0.553904   
O111     O      0.374500000000     0.347540000000     0.556170000000    -0.552916   
O112     O      0.376740000000     0.412580000000     0.546880000000    -0.55637    
O113     O      0.378420000000     0.595680000000     0.035430000000    -0.561209   
O114     O      0.378600000000     0.660810000000     0.038840000000    -0.556964   
O115     O      0.345630000000     0.627490000000     0.039850000000    -0.556012   
O116     O      0.410760000000     0.628360000000     0.034490000000    -0.559842   
O117     O      0.409130000000     0.629370000000     0.957870000000    -0.555439   
O118     O      0.344000000000     0.629750000000     0.963310000000    -0.558599   
O119     O      0.375890000000     0.661830000000     0.962330000000    -0.557992   
O120     O      0.376500000000     0.596560000000     0.958840000000    -0.554162   
O121     O      0.376040000000     0.597180000000     0.526220000000    -0.558352   
O122     O      0.374720000000     0.662220000000     0.519760000000    -0.561175   
O123     O      0.343210000000     0.629910000000     0.521060000000    -0.560908   
O124     O      0.408320000000     0.630190000000     0.524810000000    -0.557767   
O125     O      0.409530000000     0.628140000000     0.448250000000    -0.557355   
O126     O      0.344330000000     0.626790000000     0.444610000000    -0.553595   
O127     O      0.377050000000     0.660410000000     0.443250000000    -0.552411   
O128     O      0.377380000000     0.595130000000     0.449670000000    -0.555859   
O129     O      0.593260000000     0.379950000000     0.979520000000    -0.561333   
O130     O      0.657930000000     0.373800000000     0.972390000000    -0.556661   
O131     O      0.622300000000     0.344810000000     0.981360000000    -0.557951   
O132     O      0.628130000000     0.409610000000     0.970740000000    -0.554853   
O133     O      0.627190000000     0.412580000000     0.047190000000    -0.556295   
O134     O      0.629390000000     0.347540000000     0.056520000000    -0.553157   
O135     O      0.660560000000     0.381360000000     0.047390000000    -0.553936   
O136     O      0.595340000000     0.379430000000     0.056100000000    -0.550234   
O137     O      0.593580000000     0.379570000000     0.476610000000    -0.559671   
O138     O      0.658320000000     0.374090000000     0.468290000000    -0.555424   
O139     O      0.623010000000     0.344720000000     0.477630000000    -0.55717    
O140     O      0.628170000000     0.409630000000     0.467380000000    -0.553399   
O141     O      0.627350000000     0.412310000000     0.543870000000    -0.558935   
O142     O      0.630450000000     0.347370000000     0.552670000000    -0.554845   
O143     O      0.661130000000     0.381580000000     0.543290000000    -0.555735   
O144     O      0.596030000000     0.378810000000     0.553140000000    -0.551521   
O145     O      0.626630000000     0.595110000000     0.949830000000    -0.555732   
O146     O      0.626910000000     0.660390000000     0.943340000000    -0.552521   
O147     O      0.659650000000     0.626790000000     0.944710000000    -0.553895   
O148     O      0.594450000000     0.628100000000     0.948400000000    -0.557034   
O149     O      0.595680000000     0.630180000000     0.024960000000    -0.557593   
O150     O      0.660790000000     0.629940000000     0.021150000000    -0.560845   
O151     O      0.629260000000     0.662220000000     0.019840000000    -0.56119    
O152     O      0.627980000000     0.597180000000     0.026380000000    -0.557999   
O153     O      0.627500000000     0.596590000000     0.458640000000    -0.554263   
O154     O      0.628100000000     0.661860000000     0.462090000000    -0.557679   
O155     O      0.660000000000     0.629790000000     0.463100000000    -0.558657   
O156     O      0.594860000000     0.629400000000     0.457650000000    -0.555269   
O157     O      0.593240000000     0.628400000000     0.534260000000    -0.56014    
O158     O      0.658360000000     0.627530000000     0.539630000000    -0.556149   
O159     O      0.625390000000     0.660850000000     0.538610000000    -0.556952   
O160     O      0.625570000000     0.595720000000     0.535230000000    -0.561385   
O161     O      0.125680000000     0.394330000000     0.052360000000    -0.559263   
O162     O      0.127620000000     0.394840000000     0.922210000000    -0.556155   
O163     O      0.094090000000     0.394170000000     0.985450000000    -0.558106   
O164     O      0.159190000000     0.395000000000     0.990460000000    -0.557898   
O165     O      0.159810000000     0.356700000000     0.984330000000    -0.555127   
O166     O      0.094540000000     0.355760000000     0.987510000000    -0.555097   
O167     O      0.126620000000     0.356430000000     0.921470000000    -0.558373   
O168     O      0.127740000000     0.355970000000     0.051650000000    -0.555425   
O169     O      0.126020000000     0.394310000000     0.552340000000    -0.559403   
O170     O      0.128400000000     0.394810000000     0.422230000000    -0.556574   
O171     O      0.094660000000     0.394160000000     0.485030000000    -0.557964   
O172     O      0.159750000000     0.394960000000     0.490930000000    -0.557783   
O173     O      0.160360000000     0.356660000000     0.484810000000    -0.555373   
O174     O      0.095090000000     0.355750000000     0.487090000000    -0.555363   
O175     O      0.127390000000     0.356410000000     0.421470000000    -0.558597   
O176     O      0.128060000000     0.355950000000     0.551670000000    -0.555614   
O177     O      0.875490000000     0.394790000000     0.922440000000    -0.556496   
O178     O      0.877910000000     0.394300000000     0.052550000000    -0.55912    
O179     O      0.909250000000     0.394140000000     0.985190000000    -0.558032   
O180     O      0.844160000000     0.394930000000     0.991180000000    -0.557793   
O181     O      0.843560000000     0.356630000000     0.985060000000    -0.555299   
O182     O      0.908830000000     0.355740000000     0.987260000000    -0.555383   
O183     O      0.875880000000     0.355930000000     0.051880000000    -0.555385   
O184     O      0.876500000000     0.356390000000     0.921680000000    -0.558344   
O185     O      0.876310000000     0.394820000000     0.422420000000    -0.55634    
O186     O      0.878240000000     0.394320000000     0.552570000000    -0.559007   
O187     O      0.909830000000     0.394150000000     0.485670000000    -0.558282   
O188     O      0.844730000000     0.394970000000     0.490660000000    -0.558143   
O189     O      0.844120000000     0.356680000000     0.484530000000    -0.555167   
O190     O      0.909380000000     0.355740000000     0.487730000000    -0.55523    
O191     O      0.876180000000     0.355950000000     0.551860000000    -0.555364   
O192     O      0.877300000000     0.356410000000     0.421680000000    -0.558281   
V1       V      0.397560000000     0.878730000000     0.999290000000     1.3914     
V2       V      0.356140000000     0.878790000000     0.995800000000     1.39428    
V3       V      0.397360000000     0.878460000000     0.495700000000     1.38817    
V4       V      0.355950000000     0.878630000000     0.499130000000     1.39512    
V5       V      0.398580000000     0.128450000000     0.023850000000     1.39722    
V6       V      0.357120000000     0.128850000000     0.025070000000     1.39159    
V7       V      0.398600000000     0.128510000000     0.523900000000     1.3962     
V8       V      0.357140000000     0.128880000000     0.525080000000     1.39072    
V9       V      0.877120000000     0.603020000000     0.994270000000     1.38908    
V10      V      0.877530000000     0.644460000000     0.997770000000     1.39849    
V11      V      0.876120000000     0.603160000000     0.497910000000     1.3885     
V12      V      0.876650000000     0.644590000000     0.494420000000     1.39791    
V13      V      0.127870000000     0.603130000000     0.997970000000     1.38844    
V14      V      0.127350000000     0.644560000000     0.994490000000     1.39792    
V15      V      0.126870000000     0.603000000000     0.494340000000     1.38902    
V16      V      0.126460000000     0.644430000000     0.497830000000     1.39832    
V17      V      0.605170000000     0.128510000000     0.024120000000     1.39581    
V18      V      0.646620000000     0.128880000000     0.025310000000     1.39059    
V19      V      0.605190000000     0.128480000000     0.524070000000     1.39724    
V20      V      0.646650000000     0.128880000000     0.525290000000     1.39148    
V21      V      0.606460000000     0.878460000000     0.995440000000     1.38807    
V22      V      0.647870000000     0.878650000000     0.998860000000     1.39528    
V23      V      0.606250000000     0.878760000000     0.499020000000     1.39137    
V24      V      0.647660000000     0.878840000000     0.495530000000     1.39388    
V25      V      0.378200000000     0.376910000000     0.969360000000     1.39221    
V26      V      0.375090000000     0.380030000000     0.051510000000     1.38768    
V27      V      0.378540000000     0.376970000000     0.472510000000     1.39849    
V28      V      0.375740000000     0.380290000000     0.554690000000     1.38057    
V29      V      0.378370000000     0.628090000000     0.040220000000     1.39946    
V30      V      0.376390000000     0.629350000000     0.957480000000     1.3908     
V31      V      0.375610000000     0.629880000000     0.526020000000     1.40382    
V32      V      0.377080000000     0.627590000000     0.443330000000     1.38482    
V33      V      0.625380000000     0.376970000000     0.972840000000     1.39798    
V34      V      0.628170000000     0.380280000000     0.055020000000     1.38091    
V35      V      0.625730000000     0.376930000000     0.469290000000     1.39274    
V36      V      0.628820000000     0.380070000000     0.551450000000     1.3877     
V37      V      0.626910000000     0.627570000000     0.943460000000     1.38467    
V38      V      0.628390000000     0.629890000000     0.026140000000     1.40367    
V39      V      0.627610000000     0.629380000000     0.457260000000     1.39042    
V40      V      0.625620000000     0.628130000000     0.540000000000     1.39994    
V41      V      0.126620000000     0.396130000000     0.987510000000     1.39679    
V42      V      0.127200000000     0.354660000000     0.986330000000     1.38937    
V43      V      0.127190000000     0.396110000000     0.487510000000     1.397      
V44      V      0.127750000000     0.354630000000     0.486340000000     1.39008    
V45      V      0.876720000000     0.396090000000     0.987730000000     1.3965     
V46      V      0.876170000000     0.354620000000     0.986550000000     1.38984    
V47      V      0.877300000000     0.396110000000     0.487720000000     1.39697    
V48      V      0.876730000000     0.354640000000     0.486540000000     1.38974    


