data_structure

_audit_creation_method RASPA-1.0
_audit_creation_date 2023-6-5
_audit_author_name 'Poobodin Mano'

_cell_length_a    47.6526
_cell_length_b    47.6497
_cell_length_c    28.5371
_cell_angle_alpha 89.9794
_cell_angle_beta  90.0199
_cell_angle_gamma 119.978
_cell_volume      56128.5

_symmetry_cell_setting          triclinic
_symmetry_space_group_name_Hall 'P 1'
_symmetry_space_group_name_H-M  'P 1'
_symmetry_Int_Tables_number     1

_symmetry_equiv_pos_as_xyz 'x,y,z'

loop_
_atom_site_label
_atom_site_type_symbol
_atom_site_fract_x
_atom_site_fract_y
_atom_site_fract_z
_atom_site_charge
C1       C      0.856200000000     0.672980000000     0.559580000000     0.477144   
C2       C      0.824870000000     0.669740000000     0.729640000000     0.476922   
C3       C      0.781730000000     0.644930000000     0.620130000000     0.476619   
C4       C      0.899340000000     0.697780000000     0.669100000000     0.476635   
C5       C      0.189350000000     0.851800000000     0.726900000000     0.476971   
C6       C      0.158050000000     0.823740000000     0.896990000000     0.477117   
C7       C      0.114890000000     0.805440000000     0.787480000000     0.476404   
C8       C      0.232510000000     0.870090000000     0.836400000000     0.476826   
C9       C      0.522690000000     0.005890000000     0.893370000000     0.476995   
C10      C      0.491470000000     0.002690000000     0.063480000000     0.476875   
C11      C      0.448260000000     0.977840000000     0.954040000000     0.476693   
C12      C      0.565910000000     0.030730000000     0.002820000000     0.476705   
C13      C      0.158220000000     0.336300000000     0.396320000000     0.477149   
C14      C      0.189510000000     0.339540000000     0.226240000000     0.477123   
C15      C      0.232680000000     0.364410000000     0.335730000000     0.476758   
C16      C      0.115050000000     0.311430000000     0.286840000000     0.476726   
C17      C      0.824900000000     0.157040000000     0.229700000000     0.476857   
C18      C      0.856150000000     0.185080000000     0.059590000000     0.476701   
C19      C      0.899340000000     0.203450000000     0.169070000000     0.476247   
C20      C      0.781710000000     0.138670000000     0.120230000000     0.476448   
C21      C      0.522820000000     0.518730000000     0.392890000000     0.476963   
C22      C      0.491580000000     0.490700000000     0.563000000000     0.476953   
C23      C      0.448380000000     0.472350000000     0.453530000000     0.476646   
C24      C      0.566020000000     0.537100000000     0.502360000000     0.476803   
C25      C      0.159850000000     0.339540000000     0.726220000000     0.477067   
C26      C      0.187880000000     0.336320000000     0.896350000000     0.476898   
C27      C      0.206220000000     0.311440000000     0.786920000000     0.476684   
C28      C      0.141510000000     0.364410000000     0.835640000000     0.476686   
C29      C      0.341970000000     0.157040000000     0.729900000000     0.476947   
C30      C      0.338770000000     0.185070000000     0.559760000000     0.477024   
C31      C      0.313950000000     0.203460000000     0.669170000000     0.476926   
C32      C      0.366800000000     0.138640000000     0.620490000000     0.476619   
C33      C      0.008950000000     0.490670000000     0.063100000000     0.477933   
C34      C      0.005720000000     0.518740000000     0.892990000000     0.477958   
C35      C      0.980890000000     0.537100000000     0.002440000000     0.475856   
C36      C      0.033770000000     0.472320000000     0.953650000000     0.476615   
C37      C      0.672140000000     0.851860000000     0.226220000000     0.477155   
C38      C      0.675380000000     0.823790000000     0.396330000000     0.476978   
C39      C      0.700240000000     0.805480000000     0.286880000000     0.477057   
C40      C      0.647280000000     0.870170000000     0.335680000000     0.476697   
C41      C      0.854630000000     0.669760000000     0.229680000000     0.477225   
C42      C      0.826610000000     0.672950000000     0.059540000000     0.477098   
C43      C      0.808210000000     0.697780000000     0.168950000000     0.476779   
C44      C      0.873030000000     0.644920000000     0.120270000000     0.47697    
C45      C      0.521040000000     0.002670000000     0.563480000000     0.476958   
C46      C      0.492980000000     0.005900000000     0.393370000000     0.477086   
C47      C      0.474620000000     0.030730000000     0.502820000000     0.476895   
C48      C      0.539400000000     0.977850000000     0.454020000000     0.476892   
C49      C      0.338760000000     0.155550000000     0.059800000000     0.47745    
C50      C      0.341990000000     0.186870000000     0.229870000000     0.477009   
C51      C      0.366800000000     0.230020000000     0.120360000000     0.476564   
C52      C      0.313950000000     0.112400000000     0.169310000000     0.476614   
C53      C      0.521000000000     0.520130000000     0.062990000000     0.476941   
C54      C      0.492950000000     0.488860000000     0.892900000000     0.477168   
C55      C      0.474600000000     0.445680000000     0.002380000000     0.476894   
C56      C      0.539350000000     0.563310000000     0.953510000000     0.476815   
C57      C      0.159900000000     0.822370000000     0.226890000000     0.476842   
C58      C      0.187930000000     0.853610000000     0.397000000000     0.477      
C59      C      0.206260000000     0.896810000000     0.287530000000     0.476952   
C60      C      0.141580000000     0.779170000000     0.336340000000     0.476554   
C61      C      0.008920000000     0.520130000000     0.563100000000     0.477598   
C62      C      0.005730000000     0.488910000000     0.392990000000     0.477746   
C63      C      0.980880000000     0.445690000000     0.502440000000     0.475484   
C64      C      0.033760000000     0.563340000000     0.453670000000     0.476677   
C65      C      0.854640000000     0.186790000000     0.729700000000     0.476845   
C66      C      0.826610000000     0.155540000000     0.559590000000     0.477075   
C67      C      0.808230000000     0.112350000000     0.669070000000     0.476576   
C68      C      0.873010000000     0.229980000000     0.620220000000     0.476882   
C69      C      0.672160000000     0.822200000000     0.726230000000     0.477008   
C70      C      0.675380000000     0.853450000000     0.896320000000     0.476987   
C71      C      0.700260000000     0.896650000000     0.786860000000     0.476728   
C72      C      0.647280000000     0.779000000000     0.835690000000     0.476526   
C73      C      0.807040000000     0.061730000000     0.692720000000    -0.0157788  
C74      C      0.698080000000     0.945900000000     0.761090000000    -0.016539   
C75      C      0.749720000000     0.947230000000     0.763280000000    -0.0158632  
C76      C      0.753840000000     0.977920000000     0.744330000000     0.010897   
C77      C      0.724600000000     0.977590000000     0.743680000000     0.0106971  
C78      C      0.722680000000     0.004540000000     0.727940000000    -0.0649597  
C79      C      0.756780000000     0.063170000000     0.694800000000    -0.0166562  
C80      C      0.782460000000     0.004470000000     0.728010000000    -0.0659485  
C81      C      0.751570000000     0.031460000000     0.712240000000     0.0107331  
C82      C      0.780450000000     0.031060000000     0.711660000000     0.0108324  
C83      C      0.983110000000     0.396460000000     0.528190000000    -0.0176661  
C84      C      0.874190000000     0.280600000000     0.596580000000    -0.0157111  
C85      C      0.924460000000     0.279180000000     0.594480000000    -0.0167211  
C86      C      0.929660000000     0.310890000000     0.577040000000     0.0107525  
C87      C      0.900770000000     0.311270000000     0.577640000000     0.0107605  
C88      C      0.898740000000     0.337850000000     0.561290000000    -0.0658419  
C89      C      0.931450000000     0.395100000000     0.526020000000    -0.0158179  
C90      C      0.958530000000     0.337820000000     0.561340000000    -0.0651453  
C91      C      0.927340000000     0.364410000000     0.544970000000     0.0107222  
C92      C      0.956600000000     0.364760000000     0.545610000000     0.0109416  
C93      C      0.031530000000     0.612580000000     0.427990000000    -0.0165805  
C94      C      0.140440000000     0.728560000000     0.359900000000    -0.0157479  
C95      C      0.090150000000     0.729940000000     0.362010000000    -0.0166443  
C96      C      0.084960000000     0.698210000000     0.379360000000     0.0108099  
C97      C      0.113860000000     0.697850000000     0.378750000000     0.0108375  
C98      C      0.115910000000     0.671260000000     0.395020000000    -0.0659141  
C99      C      0.083200000000     0.613960000000     0.430140000000    -0.0158193  
C100     C      0.056090000000     0.671260000000     0.395000000000    -0.06497    
C101     C      0.087290000000     0.644670000000     0.411270000000     0.0108774  
C102     C      0.058040000000     0.644300000000     0.410640000000     0.0107797  
C103     C      0.649470000000     0.729760000000     0.861460000000    -0.0165602  
C104     C      0.540530000000     0.613930000000     0.929870000000    -0.015869   
C105     C      0.590790000000     0.612490000000     0.927770000000    -0.0165845  
C106     C      0.596000000000     0.644210000000     0.910330000000     0.0107071  
C107     C      0.567120000000     0.644600000000     0.910930000000     0.0108839  
C108     C      0.565100000000     0.671180000000     0.894570000000    -0.0659395  
C109     C      0.597830000000     0.728420000000     0.859290000000    -0.015764   
C110     C      0.624880000000     0.671120000000     0.894620000000    -0.064972   
C111     C      0.593710000000     0.697730000000     0.878250000000     0.0108663  
C112     C      0.622960000000     0.698070000000     0.878890000000     0.0106983  
C113     C      0.257670000000     0.946020000000     0.261740000000    -0.0166322  
C114     C      0.264540000000     0.061820000000     0.193000000000    -0.0156914  
C115     C      0.316210000000     0.063210000000     0.195150000000    -0.0167046  
C116     C      0.289730000000     0.031530000000     0.212660000000     0.0107716  
C117     C      0.260460000000     0.031160000000     0.212030000000     0.0108268  
C118     C      0.231880000000     0.004610000000     0.228430000000    -0.0659049  
C119     C      0.207390000000     0.947410000000     0.263860000000    -0.0157669  
C120     C      0.291690000000     0.004620000000     0.228450000000    -0.0649585  
C121     C      0.233940000000     0.978060000000     0.244850000000     0.0108748  
C122     C      0.262840000000     0.977700000000     0.244230000000     0.0107401  
C123     C      0.364560000000     0.279230000000     0.094550000000    -0.0165456  
C124     C      0.473430000000     0.395070000000     0.026030000000    -0.0154995  
C125     C      0.423160000000     0.396480000000     0.028140000000    -0.0165684  
C126     C      0.417970000000     0.364780000000     0.045600000000     0.0107633  
C127     C      0.446870000000     0.364400000000     0.044990000000     0.0107788  
C128     C      0.448910000000     0.337840000000     0.061360000000    -0.0658356  
C129     C      0.416220000000     0.280610000000     0.096700000000    -0.0157798  
C130     C      0.389110000000     0.337860000000     0.061340000000    -0.0649397  
C131     C      0.420310000000     0.311280000000     0.077720000000     0.0108419  
C132     C      0.391050000000     0.310920000000     0.077090000000     0.0107055  
C133     C      0.704540000000     0.831660000000     0.472210000000    -0.0167724  
C134     C      0.643000000000     0.800910000000     0.650360000000    -0.0167786  
C135     C      0.701570000000     0.825210000000     0.652870000000    -0.0163133  
C136     C      0.689800000000     0.818890000000     0.603780000000     0.0106189  
C137     C      0.656270000000     0.803530000000     0.602510000000     0.0109856  
C138     C      0.639270000000     0.794510000000     0.559990000000    -0.0655274  
C139     C      0.645970000000     0.797430000000     0.469710000000    -0.0162882  
C140     C      0.708270000000     0.828990000000     0.562580000000    -0.0655195  
C141     C      0.657740000000     0.802910000000     0.518800000000     0.0106427  
C142     C      0.691270000000     0.821030000000     0.520070000000     0.0109763  
C143     C      0.642990000000     0.843990000000     0.150340000000    -0.0166693  
C144     C      0.704530000000     0.874740000000     0.972190000000    -0.0168817  
C145     C      0.645960000000     0.850430000000     0.969680000000    -0.0164134  
C146     C      0.657730000000     0.856750000000     0.018770000000     0.0107289  
C147     C      0.691260000000     0.872120000000     0.020050000000     0.0110739  
C148     C      0.708260000000     0.881140000000     0.062560000000    -0.0655386  
C149     C      0.701550000000     0.878220000000     0.152850000000    -0.0162598  
C150     C      0.639260000000     0.846660000000     0.059960000000    -0.0655223  
C151     C      0.689780000000     0.872740000000     0.103750000000     0.0106351  
C152     C      0.656260000000     0.854610000000     0.102480000000     0.0109521  
C153     C      0.698060000000     0.754070000000     0.261100000000    -0.0166214  
C154     C      0.807000000000     0.747200000000     0.192540000000    -0.0157648  
C155     C      0.756750000000     0.695520000000     0.194670000000    -0.016668   
C156     C      0.751540000000     0.722010000000     0.212120000000     0.0107638  
C157     C      0.780410000000     0.751280000000     0.211510000000     0.0108366  
C158     C      0.782430000000     0.779860000000     0.227890000000    -0.0658957  
C159     C      0.749700000000     0.804350000000     0.263250000000    -0.0157289  
C160     C      0.722660000000     0.720040000000     0.227880000000    -0.0649908  
C161     C      0.753820000000     0.777800000000     0.244250000000     0.0108157  
C162     C      0.724580000000     0.748900000000     0.243630000000     0.0107423  
C163     C      0.540590000000     0.928430000000     0.430330000000    -0.0157981  
C164     C      0.649470000000     0.921580000000     0.361500000000    -0.0166176  
C165     C      0.597830000000     0.871300000000     0.359350000000    -0.015759   
C166     C      0.593720000000     0.897850000000     0.378400000000     0.0108526  
C167     C      0.622960000000     0.926750000000     0.379030000000     0.0107405  
C168     C      0.624900000000     0.955590000000     0.394850000000    -0.0649383  
C169     C      0.590830000000     0.980110000000     0.428200000000    -0.0165549  
C170     C      0.565120000000     0.895780000000     0.394830000000    -0.0659391  
C171     C      0.596030000000     0.953620000000     0.410670000000     0.0106883  
C172     C      0.567150000000     0.924360000000     0.411280000000     0.0108845  
C173     C      0.976560000000     0.510860000000     0.817110000000    -0.0168575  
C174     C      0.038090000000     0.541440000000     0.638960000000    -0.0171371  
C175     C      0.979520000000     0.517150000000     0.636450000000    -0.0164164  
C176     C      0.991300000000     0.523510000000     0.685540000000     0.00938897 
C177     C      0.024820000000     0.538870000000     0.686800000000     0.0122832  
C178     C      0.041830000000     0.547910000000     0.729310000000    -0.0662838  
C179     C      0.035130000000     0.545070000000     0.819600000000    -0.0166438  
C180     C      0.972830000000     0.513460000000     0.726730000000    -0.0648427  
C181     C      0.023360000000     0.539560000000     0.770510000000     0.0119204  
C182     C      0.989830000000     0.521450000000     0.769240000000     0.00972921 
C183     C      0.976570000000     0.467650000000     0.317120000000    -0.016962   
C184     C      0.038110000000     0.498510000000     0.138970000000    -0.0170561  
C185     C      0.979550000000     0.464270000000     0.136460000000    -0.0163607  
C186     C      0.991320000000     0.469690000000     0.185550000000     0.00939277 
C187     C      0.024850000000     0.487840000000     0.186820000000     0.0122713  
C188     C      0.041850000000     0.495810000000     0.229330000000    -0.0663019  
C189     C      0.035140000000     0.491990000000     0.319620000000    -0.0165198  
C190     C      0.972840000000     0.461300000000     0.226740000000    -0.0649057  
C191     C      0.023380000000     0.485710000000     0.270530000000     0.01187    
C192     C      0.989850000000     0.470320000000     0.269250000000     0.00979465 
C193     C      0.983120000000     0.588540000000     0.028190000000    -0.0175205  
C194     C      0.874220000000     0.595490000000     0.096690000000    -0.0157132  
C195     C      0.924470000000     0.647160000000     0.094540000000    -0.0165864  
C196     C      0.929680000000     0.620650000000     0.077110000000     0.0107265  
C197     C      0.900790000000     0.591400000000     0.077730000000     0.0107941  
C198     C      0.898760000000     0.562800000000     0.061380000000    -0.0658485  
C199     C      0.931460000000     0.538270000000     0.026060000000    -0.0156508  
C200     C      0.958550000000     0.622600000000     0.061370000000    -0.0651585  
C201     C      0.927360000000     0.564840000000     0.045020000000     0.0107084  
C202     C      0.956610000000     0.593730000000     0.045640000000     0.0109349  
C203     C      0.371120000000     0.164910000000     0.805790000000    -0.0167406  
C204     C      0.309590000000     0.134240000000     0.983940000000    -0.0167696  
C205     C      0.368150000000     0.158540000000     0.986450000000    -0.0162391  
C206     C      0.356380000000     0.152200000000     0.937360000000     0.0105705  
C207     C      0.322850000000     0.136840000000     0.936090000000     0.0110103  
C208     C      0.305850000000     0.127820000000     0.893580000000    -0.0655946  
C209     C      0.312550000000     0.130710000000     0.803290000000    -0.0162999  
C210     C      0.374850000000     0.162280000000     0.896160000000    -0.0654988  
C211     C      0.324320000000     0.136190000000     0.852390000000     0.0106614  
C212     C      0.357850000000     0.154310000000     0.853650000000     0.0109583  
C213     C      0.312580000000     0.183800000000     0.303240000000    -0.0163085  
C214     C      0.368180000000     0.211460000000     0.486400000000    -0.0163126  
C215     C      0.309610000000     0.177220000000     0.483890000000    -0.0167487  
C216     C      0.322880000000     0.187900000000     0.436040000000     0.0109766  
C217     C      0.356410000000     0.206050000000     0.437310000000     0.0106409  
C218     C      0.374880000000     0.214460000000     0.396120000000    -0.0655123  
C219     C      0.371150000000     0.208140000000     0.305740000000    -0.0166923  
C220     C      0.305880000000     0.179960000000     0.393520000000    -0.0655219  
C221     C      0.357880000000     0.205450000000     0.353600000000     0.0109471  
C222     C      0.324350000000     0.190070000000     0.352330000000     0.0106602  
C223     C      0.364560000000     0.087180000000     0.594800000000    -0.0166472  
C224     C      0.473450000000     0.080160000000     0.526420000000    -0.0156909  
C225     C      0.423180000000     0.028510000000     0.528560000000    -0.0166454  
C226     C      0.417990000000     0.055020000000     0.545970000000     0.0107662  
C227     C      0.446880000000     0.084270000000     0.545350000000     0.0108112  
C228     C      0.448920000000     0.112880000000     0.561680000000    -0.0658812  
C229     C      0.416230000000     0.137440000000     0.596930000000    -0.0157444  
C230     C      0.389120000000     0.053090000000     0.561680000000    -0.0649923  
C231     C      0.420320000000     0.110860000000     0.578000000000     0.0108417  
C232     C      0.391060000000     0.081970000000     0.577390000000     0.0107492  
C233     C      0.090090000000     0.362220000000     0.861400000000    -0.016653   
C234     C      0.083190000000     0.471130000000     0.930010000000    -0.0156897  
C235     C      0.031530000000     0.420870000000     0.927880000000    -0.0167269  
C236     C      0.058020000000     0.415670000000     0.910400000000     0.0108727  
C237     C      0.087280000000     0.444550000000     0.911020000000     0.010785   
C238     C      0.115870000000     0.446580000000     0.894630000000    -0.0658734  
C239     C      0.140370000000     0.413860000000     0.859250000000    -0.0156956  
C240     C      0.056060000000     0.386800000000     0.894640000000    -0.0650138  
C241     C      0.113810000000     0.417980000000     0.878250000000     0.0108106  
C242     C      0.084920000000     0.388730000000     0.878870000000     0.0108268  
C243     C      0.207350000000     0.261990000000     0.763340000000    -0.0157397  
C244     C      0.316200000000     0.254920000000     0.694870000000    -0.0166322  
C245     C      0.264530000000     0.204670000000     0.692740000000    -0.01569    
C246     C      0.260440000000     0.231260000000     0.711680000000     0.0108059  
C247     C      0.289710000000     0.260140000000     0.712300000000     0.0107656  
C248     C      0.291670000000     0.289020000000     0.728020000000    -0.0649907  
C249     C      0.257640000000     0.313630000000     0.761190000000    -0.0166245  
C250     C      0.231850000000     0.229250000000     0.728030000000    -0.065875   
C251     C      0.262810000000     0.287110000000     0.743750000000     0.0107401  
C252     C      0.233910000000     0.257860000000     0.744380000000     0.0108473  
C253     C      0.470270000000     0.498570000000     0.638840000000    -0.0167488  
C254     C      0.500830000000     0.467580000000     0.817050000000    -0.016651   
C255     C      0.466610000000     0.491950000000     0.819490000000    -0.0163616  
C256     C      0.472100000000     0.485660000000     0.770410000000     0.0106724  
C257     C      0.490240000000     0.470260000000     0.769170000000     0.0109019  
C258     C      0.498260000000     0.461280000000     0.726670000000    -0.0654318  
C259     C      0.494580000000     0.464300000000     0.636380000000    -0.0161973  
C260     C      0.463780000000     0.495820000000     0.729200000000    -0.065541   
C261     C      0.488240000000     0.469730000000     0.685460000000     0.0105759  
C262     C      0.472860000000     0.487890000000     0.686710000000     0.0109969  
C263     C      0.519730000000     0.545060000000     0.319480000000    -0.0161702  
C264     C      0.547410000000     0.517130000000     0.136370000000    -0.016248   
C265     C      0.513150000000     0.541460000000     0.138830000000    -0.0168234  
C266     C      0.523840000000     0.538870000000     0.186690000000     0.0110207  
C267     C      0.542000000000     0.523490000000     0.185450000000     0.0106155  
C268     C      0.550410000000     0.513430000000     0.226660000000    -0.0655328  
C269     C      0.544090000000     0.510830000000     0.317040000000    -0.0168707  
C270     C      0.515880000000     0.547920000000     0.229190000000    -0.0655567  
C271     C      0.541400000000     0.521420000000     0.269160000000     0.0110287  
C272     C      0.526000000000     0.539560000000     0.270400000000     0.0105957  
C273     C      0.853110000000     0.211460000000     0.986210000000    -0.0164743  
C274     C      0.881000000000     0.183740000000     0.803090000000    -0.0161294  
C275     C      0.846770000000     0.208090000000     0.805540000000    -0.0167218  
C276     C      0.857390000000     0.205440000000     0.853420000000     0.0109866  
C277     C      0.875540000000     0.190040000000     0.852180000000     0.0105138  
C278     C      0.883880000000     0.179910000000     0.893380000000    -0.0655048  
C279     C      0.877450000000     0.177200000000     0.983750000000    -0.0168364  
C280     C      0.849380000000     0.214440000000     0.895920000000    -0.0656353  
C281     C      0.874820000000     0.187850000000     0.935880000000     0.010906   
C282     C      0.859440000000     0.206010000000     0.937120000000     0.0106853  
C283     C      0.800220000000     0.158570000000     0.486210000000    -0.0161944  
C284     C      0.827960000000     0.130680000000     0.303100000000    -0.0163409  
C285     C      0.803610000000     0.164920000000     0.305550000000    -0.0167634  
C286     C      0.806260000000     0.154300000000     0.353420000000     0.0109574  
C287     C      0.821650000000     0.136150000000     0.352180000000     0.0106355  
C288     C      0.831770000000     0.127800000000     0.393390000000    -0.0655472  
C289     C      0.834470000000     0.134230000000     0.483750000000    -0.0167914  
C290     C      0.797250000000     0.162300000000     0.395920000000    -0.0655118  
C291     C      0.823830000000     0.136860000000     0.435890000000     0.0109868  
C292     C      0.805670000000     0.152250000000     0.437130000000     0.0105963  
C293     C      0.133490000000     0.310120000000     0.652850000000    -0.016266   
C294     C      0.161230000000     0.365710000000     0.469670000000    -0.0163067  
C295     C      0.136930000000     0.307140000000     0.472190000000    -0.0167957  
C296     C      0.139560000000     0.320410000000     0.520050000000     0.0110471  
C297     C      0.154930000000     0.353940000000     0.518770000000     0.0106426  
C298     C      0.165030000000     0.372420000000     0.559960000000    -0.0655319  
C299     C      0.167710000000     0.368700000000     0.650330000000    -0.0168871  
C300     C      0.130550000000     0.303410000000     0.562560000000    -0.0655705  
C301     C      0.157090000000     0.355420000000     0.602470000000     0.0110446  
C302     C      0.138950000000     0.321890000000     0.603750000000     0.0106647  
C303     C      0.180020000000     0.307160000000     0.972230000000    -0.0168991  
C304     C      0.210800000000     0.368700000000     0.150380000000    -0.0167108  
C305     C      0.186500000000     0.310130000000     0.152880000000    -0.0163115  
C306     C      0.192810000000     0.321900000000     0.103790000000     0.010669   
C307     C      0.208180000000     0.355430000000     0.102520000000     0.010993   
C308     C      0.217180000000     0.372440000000     0.060010000000    -0.0655822  
C309     C      0.214240000000     0.365730000000     0.969720000000    -0.0163575  
C310     C      0.182700000000     0.303430000000     0.062600000000    -0.0655552  
C311     C      0.208780000000     0.353960000000     0.018820000000     0.0107221  
C312     C      0.190650000000     0.320430000000     0.020090000000     0.0111152  
C313     C      0.949970000000     0.204650000000     0.192710000000    -0.0154469  
C314     C      0.065810000000     0.313620000000     0.261050000000    -0.0165633  
C315     C      0.064480000000     0.261970000000     0.263230000000    -0.0158027  
C316     C      0.033780000000     0.257840000000     0.244290000000     0.0108223  
C317     C      0.034110000000     0.287090000000     0.243640000000     0.0106653  
C318     C      0.007160000000     0.289010000000     0.227920000000    -0.064089   
C319     C      0.948530000000     0.254900000000     0.194790000000    -0.0163727  
C320     C      0.007230000000     0.229220000000     0.227970000000    -0.0650594  
C321     C      0.980240000000     0.260120000000     0.212220000000     0.0100023  
C322     C      0.980640000000     0.231240000000     0.211630000000     0.010086   
C323     C      0.281920000000     0.362220000000     0.361520000000    -0.0165662  
C324     C      0.397760000000     0.471160000000     0.429890000000    -0.0157086  
C325     C      0.399190000000     0.420900000000     0.427800000000    -0.0166368  
C326     C      0.367480000000     0.415690000000     0.410370000000     0.0107617  
C327     C      0.367090000000     0.444580000000     0.410970000000     0.0107978  
C328     C      0.340500000000     0.446600000000     0.394620000000    -0.0658822  
C329     C      0.283260000000     0.413860000000     0.359350000000    -0.0157217  
C330     C      0.340560000000     0.386810000000     0.394670000000    -0.0649971  
C331     C      0.313950000000     0.417980000000     0.378300000000     0.0108288  
C332     C      0.313610000000     0.388730000000     0.378940000000     0.010721   
C333     C      0.513190000000     0.973510000000     0.639350000000    -0.0167159  
C334     C      0.543970000000     0.035050000000     0.817500000000    -0.0168464  
C335     C      0.519660000000     0.976480000000     0.820010000000    -0.016208   
C336     C      0.525970000000     0.988250000000     0.770920000000     0.010627   
C337     C      0.541340000000     0.021780000000     0.769650000000     0.0109949  
C338     C      0.550350000000     0.038780000000     0.727130000000    -0.065549   
C339     C      0.547410000000     0.032080000000     0.636850000000    -0.0163079  
C340     C      0.515870000000     0.969770000000     0.729730000000    -0.0655617  
C341     C      0.541950000000     0.020310000000     0.685950000000     0.0106427  
C342     C      0.523820000000     0.986780000000     0.687210000000     0.0109765  
C343     C      0.494490000000     0.032090000000     0.136830000000    -0.0161965  
C344     C      0.466620000000     0.976500000000     0.320000000000    -0.0161378  
C345     C      0.500830000000     0.035070000000     0.317500000000    -0.0167978  
C346     C      0.490220000000     0.021800000000     0.269630000000     0.010991   
C347     C      0.472080000000     0.988270000000     0.270900000000     0.0105871  
C348     C      0.463740000000     0.969790000000     0.229710000000    -0.0655142  
C349     C      0.470190000000     0.973520000000     0.139350000000    -0.0167823  
C350     C      0.498210000000     0.038800000000     0.227120000000    -0.065523   
C351     C      0.472800000000     0.986790000000     0.187200000000     0.0110201  
C352     C      0.488170000000     0.020320000000     0.185930000000     0.010584   
C353     C      0.732500000000     0.087220000000     0.094550000000    -0.0165746  
C354     C      0.616510000000     0.080180000000     0.026350000000    -0.0156519  
C355     C      0.615150000000     0.028520000000     0.028530000000    -0.0164802  
C356     C      0.646870000000     0.055040000000     0.045870000000     0.0107177  
C357     C      0.647210000000     0.084300000000     0.045230000000     0.0108199  
C358     C      0.673800000000     0.112910000000     0.061490000000    -0.0658498  
C359     C      0.731080000000     0.137490000000     0.096640000000    -0.0158271  
C360     C      0.673830000000     0.053120000000     0.061540000000    -0.0649327  
C361     C      0.700390000000     0.110900000000     0.077770000000     0.0108834  
C362     C      0.700770000000     0.082000000000     0.077180000000     0.0107104  
C363     C      0.186350000000     0.878200000000     0.653520000000    -0.0163298  
C364     C      0.214280000000     0.850530000000     0.470390000000    -0.0163213  
C365     C      0.180040000000     0.874890000000     0.472850000000    -0.0168666  
C366     C      0.190650000000     0.872210000000     0.520730000000     0.0110593  
C367     C      0.208790000000     0.856810000000     0.519490000000     0.0106254  
C368     C      0.217120000000     0.846660000000     0.560690000000    -0.0655444  
C369     C      0.210660000000     0.843930000000     0.651050000000    -0.0167104  
C370     C      0.182640000000     0.881210000000     0.563230000000    -0.0656058  
C371     C      0.208050000000     0.854590000000     0.603190000000     0.0109625  
C372     C      0.192680000000     0.872760000000     0.604430000000     0.0106917  
C373     C      0.161130000000     0.797410000000     0.970390000000    -0.0162443  
C374     C      0.133490000000     0.825370000000     0.153510000000    -0.0163716  
C375     C      0.167760000000     0.801050000000     0.151040000000    -0.0167939  
C376     C      0.157060000000     0.803630000000     0.103180000000     0.0109976  
C377     C      0.138900000000     0.819010000000     0.104430000000     0.0107378  
C378     C      0.130480000000     0.829070000000     0.063220000000    -0.065636   
C379     C      0.136780000000     0.831650000000     0.972840000000    -0.0170277  
C380     C      0.165010000000     0.794570000000     0.060680000000    -0.0655318  
C381     C      0.139480000000     0.821070000000     0.020720000000     0.0112128  
C382     C      0.154880000000     0.802920000000     0.019480000000     0.0106703  
C383     C      0.281730000000     0.921510000000     0.862150000000    -0.0166623  
C384     C      0.397640000000     0.928410000000     0.930480000000    -0.0158693  
C385     C      0.399030000000     0.980090000000     0.928320000000    -0.0166204  
C386     C      0.367320000000     0.953590000000     0.910940000000     0.010714   
C387     C      0.366950000000     0.924320000000     0.911570000000     0.0108723  
C388     C      0.340360000000     0.895720000000     0.895280000000    -0.0659339  
C389     C      0.283100000000     0.871210000000     0.860050000000    -0.0158044  
C390     C      0.340380000000     0.955550000000     0.895250000000    -0.0649658  
C391     C      0.313790000000     0.897770000000     0.878960000000     0.0108519  
C392     C      0.313440000000     0.926680000000     0.879570000000     0.010737   
C393     C      0.800240000000     0.643540000000     0.986170000000    -0.016383   
C394     C      0.827900000000     0.699140000000     0.803000000000    -0.0162946  
C395     C      0.803580000000     0.640570000000     0.805510000000    -0.0167356  
C396     C      0.806230000000     0.653840000000     0.853370000000     0.0109759  
C397     C      0.821610000000     0.687370000000     0.852100000000     0.0105993  
C398     C      0.831740000000     0.705840000000     0.893290000000    -0.0655365  
C399     C      0.834460000000     0.702110000000     0.983660000000    -0.016815   
C400     C      0.797250000000     0.636840000000     0.895880000000    -0.065551   
C401     C      0.823810000000     0.688840000000     0.935800000000     0.0109533  
C402     C      0.805670000000     0.655310000000     0.937080000000     0.0106338  
C403     C      0.846760000000     0.640600000000     0.305570000000    -0.0167679  
C404     C      0.877510000000     0.702140000000     0.483720000000    -0.0166818  
C405     C      0.853200000000     0.643570000000     0.486220000000    -0.0163036  
C406     C      0.859520000000     0.655350000000     0.437130000000     0.0106471  
C407     C      0.874890000000     0.688880000000     0.435860000000     0.0109102  
C408     C      0.883900000000     0.705880000000     0.393350000000    -0.065572   
C409     C      0.880970000000     0.699170000000     0.303060000000    -0.0162378  
C410     C      0.849430000000     0.636870000000     0.395940000000    -0.0656196  
C411     C      0.875500000000     0.687400000000     0.352160000000     0.0105674  
C412     C      0.857380000000     0.653870000000     0.353430000000     0.0109975  
C413     C      0.732520000000     0.647170000000     0.594320000000    -0.0166596  
C414     C      0.616630000000     0.538260000000     0.525980000000    -0.0157154  
C415     C      0.615230000000     0.588540000000     0.528080000000    -0.0166958  
C416     C      0.646940000000     0.593730000000     0.545490000000     0.0107811  
C417     C      0.647310000000     0.564840000000     0.544890000000     0.0107989  
C418     C      0.673890000000     0.562800000000     0.561220000000    -0.0658542  
C419     C      0.731140000000     0.595500000000     0.596480000000    -0.01576    
C420     C      0.673870000000     0.622610000000     0.561190000000    -0.0650095  
C421     C      0.700460000000     0.591410000000     0.577530000000     0.010823   
C422     C      0.700820000000     0.620670000000     0.576900000000     0.0107438  
C423     C      0.949920000000     0.747190000000     0.692830000000    -0.0154274  
C424     C      0.065690000000     0.754040000000     0.761650000000    -0.0165632  
C425     C      0.064310000000     0.804330000000     0.763760000000    -0.0157159  
C426     C      0.033660000000     0.777780000000     0.744740000000     0.0107583  
C427     C      0.034010000000     0.748880000000     0.744130000000     0.0106795  
C428     C      0.007100000000     0.720020000000     0.728330000000    -0.0641058  
C429     C      0.948520000000     0.695520000000     0.694980000000    -0.0163731  
C430     C      0.007120000000     0.779850000000     0.728300000000    -0.0649635  
C431     C      0.980200000000     0.722000000000     0.712510000000     0.0100135  
C432     C      0.980570000000     0.751260000000     0.711880000000     0.0100329  
H1       H      0.763840000000     0.951480000000     0.796110000000     0.0394837  
H2       H      0.686340000000     0.949080000000     0.792710000000     0.038978   
H3       H      0.699980000000     0.004570000000     0.727920000000     0.0423862  
H4       H      0.805170000000     0.004450000000     0.728030000000     0.0405135  
H5       H      0.827080000000     0.073880000000     0.718510000000     0.0388442  
H6       H      0.741890000000     0.060020000000     0.663160000000     0.0390038  
H7       H      0.757590000000     0.935050000000     0.737520000000     0.0388787  
H8       H      0.679300000000     0.933190000000     0.733740000000     0.0404873  
H9       H      0.750730000000     0.075910000000     0.722120000000     0.0405085  
H10      H      0.816890000000     0.057440000000     0.659910000000     0.039448   
H11      H      0.939350000000     0.282340000000     0.626110000000     0.038931   
H12      H      0.864330000000     0.284880000000     0.629390000000     0.0394465  
H13      H      0.876020000000     0.337860000000     0.561280000000     0.0405047  
H14      H      0.981240000000     0.337800000000     0.561350000000     0.0422449  
H15      H      0.001890000000     0.409170000000     0.555530000000     0.0412578  
H16      H      0.917320000000     0.390820000000     0.493190000000     0.0394746  
H17      H      0.930510000000     0.266450000000     0.567150000000     0.0404463  
H18      H      0.854140000000     0.268450000000     0.570790000000     0.0388377  
H19      H      0.923560000000     0.407260000000     0.551780000000     0.0388579  
H20      H      0.994840000000     0.393290000000     0.496570000000     0.0390078  
H21      H      0.084070000000     0.742630000000     0.389380000000     0.0405669  
H22      H      0.160470000000     0.740690000000     0.385720000000     0.0388614  
H23      H      0.138630000000     0.671270000000     0.395030000000     0.0405753  
H24      H      0.033380000000     0.671260000000     0.394990000000     0.0425456  
H25      H      0.019770000000     0.615710000000     0.459620000000     0.0391303  
H26      H      0.091100000000     0.601830000000     0.404330000000     0.0389007  
H27      H      0.075260000000     0.726810000000     0.330380000000     0.0391024  
H28      H      0.150330000000     0.724330000000     0.327080000000     0.0395053  
H29      H      0.097320000000     0.618200000000     0.462970000000     0.0395127  
H30      H      0.012760000000     0.599890000000     0.400610000000     0.0406367  
H31      H      0.605690000000     0.615650000000     0.959410000000     0.0389734  
H32      H      0.530680000000     0.618220000000     0.962670000000     0.039484   
H33      H      0.542390000000     0.671200000000     0.894550000000     0.0405496  
H34      H      0.647580000000     0.671100000000     0.894640000000     0.0423963  
H35      H      0.668260000000     0.742470000000     0.888800000000     0.0404724  
H36      H      0.583700000000     0.724160000000     0.826450000000     0.0394633  
H37      H      0.596840000000     0.599760000000     0.900450000000     0.0404935  
H38      H      0.520490000000     0.601770000000     0.904080000000     0.0388876  
H39      H      0.589950000000     0.740600000000     0.885040000000     0.0388635  
H40      H      0.661200000000     0.726580000000     0.829840000000     0.0389846  
H41      H      0.327920000000     0.060010000000     0.163540000000     0.0390391  
H42      H      0.250380000000     0.057500000000     0.160180000000     0.0394806  
H43      H      0.209160000000     0.004610000000     0.228430000000     0.040586   
H44      H      0.314410000000     0.004620000000     0.228460000000     0.0423815  
H45      H      0.263730000000     0.933270000000     0.234440000000     0.0405148  
H46      H      0.197560000000     0.951720000000     0.296680000000     0.039509   
H47      H      0.335010000000     0.075970000000     0.222460000000     0.0405317  
H48      H      0.256660000000     0.074010000000     0.218740000000     0.0388708  
H49      H      0.187320000000     0.935220000000     0.238120000000     0.0389149  
H50      H      0.272590000000     0.949230000000     0.293370000000     0.0390056  
H51      H      0.417110000000     0.409220000000     0.055470000000     0.0405071  
H52      H      0.493490000000     0.407240000000     0.051800000000     0.038834   
H53      H      0.471630000000     0.337830000000     0.061380000000     0.0405373  
H54      H      0.366400000000     0.337870000000     0.061330000000     0.0424109  
H55      H      0.352830000000     0.282420000000     0.126170000000     0.0389877  
H56      H      0.424100000000     0.268430000000     0.070950000000     0.038896   
H57      H      0.408260000000     0.393310000000     0.996510000000     0.0389173  
H58      H      0.483290000000     0.390780000000     0.993220000000     0.0393347  
H59      H      0.430370000000     0.284900000000     0.129520000000     0.0394797  
H60      H      0.345770000000     0.266500000000     0.067220000000     0.0405091  
H61      H      0.719590000000     0.851230000000     0.658590000000     0.0377867  
H62      H      0.629740000000     0.814520000000     0.653180000000     0.0419785  
H63      H      0.613070000000     0.782330000000     0.558980000000     0.0409529  
H64      H      0.734470000000     0.842980000000     0.563600000000     0.0409295  
H65      H      0.717800000000     0.858520000000     0.469340000000     0.0419735  
H66      H      0.634730000000     0.771390000000     0.460280000000     0.0398423  
H67      H      0.712810000000     0.810420000000     0.662350000000     0.0398503  
H68      H      0.626300000000     0.775220000000     0.660000000000     0.0368364  
H69      H      0.627950000000     0.805430000000     0.463940000000     0.0378049  
H70      H      0.721240000000     0.822650000000     0.462610000000     0.0368118  
H71      H      0.634720000000     0.865230000000     0.960200000000     0.0398603  
H72      H      0.721240000000     0.900430000000     0.962550000000     0.0368143  
H73      H      0.734460000000     0.893320000000     0.063580000000     0.0409616  
H74      H      0.613060000000     0.832660000000     0.058950000000     0.0409796  
H75      H      0.626280000000     0.853000000000     0.159930000000     0.0368054  
H76      H      0.719570000000     0.870220000000     0.158620000000     0.0377927  
H77      H      0.627950000000     0.824420000000     0.963960000000     0.0378131  
H78      H      0.717790000000     0.861130000000     0.969370000000     0.0419574  
H79      H      0.712790000000     0.904260000000     0.162270000000     0.0398326  
H80      H      0.629720000000     0.817130000000     0.153210000000     0.0419566  
H81      H      0.741850000000     0.683800000000     0.163040000000     0.039027   
H82      H      0.816830000000     0.761340000000     0.159720000000     0.039457   
H83      H      0.805130000000     0.802590000000     0.227890000000     0.0405068  
H84      H      0.699960000000     0.697330000000     0.227880000000     0.042413   
H85      H      0.679260000000     0.748010000000     0.233780000000     0.0405088  
H86      H      0.763840000000     0.814190000000     0.296070000000     0.0394445  
H87      H      0.750710000000     0.676730000000     0.222000000000     0.040528   
H88      H      0.827060000000     0.755090000000     0.218300000000     0.0388481  
H89      H      0.757560000000     0.824420000000     0.237500000000     0.0388528  
H90      H      0.686360000000     0.739150000000     0.292720000000     0.0390023  
H91      H      0.583680000000     0.861480000000     0.326530000000     0.0394779  
H92      H      0.661160000000     0.936510000000     0.329880000000     0.0389984  
H93      H      0.647600000000     0.978310000000     0.394860000000     0.042383   
H94      H      0.542420000000     0.873060000000     0.394830000000     0.040567   
H95      H      0.520500000000     0.920560000000     0.404610000000     0.0388848  
H96      H      0.605760000000     0.991800000000     0.459830000000     0.0389747  
H97      H      0.589970000000     0.851220000000     0.385070000000     0.0388776  
H98      H      0.668280000000     0.927620000000     0.388800000000     0.0405101  
H99      H      0.596860000000     0.998920000000     0.400920000000     0.0405121  
H100     H      0.530780000000     0.914270000000     0.463140000000     0.0394681  
H101     H      0.968280000000     0.531930000000     0.626920000000     0.0397383  
H102     H      0.054800000000     0.567120000000     0.629280000000     0.0369686  
H103     H      0.068030000000     0.560090000000     0.730330000000     0.041169   
H104     H      0.946630000000     0.499470000000     0.725720000000     0.0407362  
H105     H      0.959870000000     0.519900000000     0.826680000000     0.0366964  
H106     H      0.053140000000     0.537060000000     0.825400000000     0.0379299  
H107     H      0.961500000000     0.491130000000     0.630770000000     0.0377222  
H108     H      0.051340000000     0.527810000000     0.636180000000     0.042106   
H109     H      0.046380000000     0.571110000000     0.828990000000     0.0399903  
H110     H      0.963280000000     0.484010000000     0.820020000000     0.0418689  
H111     H      0.961530000000     0.472270000000     0.130750000000     0.037725   
H112     H      0.051370000000     0.525370000000     0.136140000000     0.0421021  
H113     H      0.068040000000     0.509810000000     0.230350000000     0.0411993  
H114     H      0.946650000000     0.449110000000     0.225730000000     0.0407817  
H115     H      0.963300000000     0.481250000000     0.319990000000     0.0418915  
H116     H      0.046400000000     0.477190000000     0.329050000000     0.0399662  
H117     H      0.968310000000     0.438240000000     0.126980000000     0.0397128  
H118     H      0.054830000000     0.489520000000     0.129320000000     0.0369359  
H119     H      0.053150000000     0.517990000000     0.325390000000     0.0378955  
H120     H      0.959880000000     0.441950000000     0.326710000000     0.0367515  
H121     H      0.930520000000     0.665950000000     0.067210000000     0.0404227  
H122     H      0.854160000000     0.587610000000     0.070920000000     0.0388752  
H123     H      0.876050000000     0.540080000000     0.061380000000     0.0405304  
H124     H      0.981250000000     0.645310000000     0.061360000000     0.0422833  
H125     H      0.994830000000     0.603440000000     0.996560000000     0.038897   
H126     H      0.923590000000     0.518210000000     0.051820000000     0.0388411  
H127     H      0.939380000000     0.658880000000     0.126170000000     0.038874   
H128     H      0.864380000000     0.581350000000     0.129510000000     0.0394372  
H129     H      0.917320000000     0.528430000000     0.993240000000     0.0393585  
H130     H      0.001910000000     0.594590000000     0.055520000000     0.0412498  
H131     H      0.386170000000     0.184550000000     0.992150000000     0.0377615  
H132     H      0.296330000000     0.147860000000     0.986750000000     0.041943   
H133     H      0.279660000000     0.115640000000     0.892560000000     0.0409975  
H134     H      0.401050000000     0.176260000000     0.897170000000     0.0409335  
H135     H      0.384400000000     0.191770000000     0.802900000000     0.0419638  
H136     H      0.301300000000     0.104670000000     0.793880000000     0.0398534  
H137     H      0.379400000000     0.143740000000     0.995950000000     0.0397767  
H138     H      0.292880000000     0.108550000000     0.993600000000     0.0368009  
H139     H      0.294540000000     0.138720000000     0.797510000000     0.0378159  
H140     H      0.387820000000     0.155890000000     0.796200000000     0.0368038  
H141     H      0.296360000000     0.150360000000     0.486700000000     0.0419814  
H142     H      0.386190000000     0.203450000000     0.492110000000     0.0378292  
H143     H      0.401080000000     0.226650000000     0.397130000000     0.0409482  
H144     H      0.279680000000     0.165950000000     0.392510000000     0.0409699  
H145     H      0.294570000000     0.157800000000     0.297460000000     0.0378342  
H146     H      0.387840000000     0.233850000000     0.296160000000     0.0367961  
H147     H      0.292900000000     0.186210000000     0.493540000000     0.0368424  
H148     H      0.379420000000     0.237490000000     0.495890000000     0.0398579  
H149     H      0.384440000000     0.194550000000     0.302850000000     0.0419542  
H150     H      0.301330000000     0.198600000000     0.293820000000     0.0398531  
H151     H      0.408280000000     0.016780000000     0.496930000000     0.0389951  
H152     H      0.483310000000     0.094300000000     0.493590000000     0.0394576  
H153     H      0.471640000000     0.135590000000     0.561680000000     0.0405369  
H154     H      0.366410000000     0.030390000000     0.561680000000     0.042411   
H155     H      0.345770000000     0.081130000000     0.567450000000     0.0405113  
H156     H      0.430360000000     0.147290000000     0.629760000000     0.0394755  
H157     H      0.417130000000     0.009720000000     0.555900000000     0.0404991  
H158     H      0.493500000000     0.088040000000     0.552190000000     0.038859   
H159     H      0.424120000000     0.157500000000     0.571150000000     0.0388764  
H160     H      0.352830000000     0.072290000000     0.626430000000     0.0390132  
H161     H      0.019810000000     0.405960000000     0.959510000000     0.0391352  
H162     H      0.097340000000     0.480960000000     0.962820000000     0.039453   
H163     H      0.138580000000     0.469290000000     0.894620000000     0.0405472  
H164     H      0.033350000000     0.364100000000     0.894650000000     0.042543   
H165     H      0.084040000000     0.343410000000     0.888720000000     0.0405836  
H166     H      0.150200000000     0.428010000000     0.826430000000     0.039463   
H167     H      0.012730000000     0.414840000000     0.900560000000     0.040686   
H168     H      0.091070000000     0.491200000000     0.904250000000     0.0388646  
H169     H      0.160440000000     0.421740000000     0.885000000000     0.0388543  
H170     H      0.075180000000     0.350510000000     0.829780000000     0.0391048  
H171     H      0.250390000000     0.194830000000     0.659920000000     0.0394806  
H172     H      0.327930000000     0.269820000000     0.663240000000     0.0390034  
H173     H      0.314380000000     0.311720000000     0.728020000000     0.0424048  
H174     H      0.209130000000     0.206540000000     0.728040000000     0.0405687  
H175     H      0.187290000000     0.254120000000     0.737580000000     0.0389005  
H176     H      0.272550000000     0.325340000000     0.792810000000     0.0389982  
H177     H      0.256630000000     0.184620000000     0.718520000000     0.0388673  
H178     H      0.334990000000     0.260970000000     0.722210000000     0.040503   
H179     H      0.263690000000     0.332420000000     0.733850000000     0.0405124  
H180     H      0.197510000000     0.247850000000     0.796160000000     0.0394861  
H181     H      0.440570000000     0.477170000000     0.828900000000     0.0398482  
H182     H      0.491820000000     0.441870000000     0.826650000000     0.0367886  
H183     H      0.512260000000     0.449060000000     0.725690000000     0.0409033  
H184     H      0.451590000000     0.509840000000     0.730190000000     0.0409515  
H185     H      0.444580000000     0.489600000000     0.629170000000     0.0368348  
H186     H      0.520600000000     0.472290000000     0.630690000000     0.0377789  
H187     H      0.474610000000     0.517960000000     0.825250000000     0.0378248  
H188     H      0.527690000000     0.481150000000     0.819950000000     0.041947   
H189     H      0.479810000000     0.438270000000     0.626900000000     0.0398199  
H190     H      0.483880000000     0.525430000000     0.636020000000     0.0419653  
H191     H      0.522120000000     0.567150000000     0.129150000000     0.0368543  
H192     H      0.573440000000     0.531910000000     0.126870000000     0.0398526  
H193     H      0.562620000000     0.499430000000     0.225670000000     0.0409585  
H194     H      0.501870000000     0.560110000000     0.230180000000     0.0409849  
H195     H      0.534510000000     0.571110000000     0.328880000000     0.0398037  
H196     H      0.530520000000     0.483980000000     0.319950000000     0.0420176  
H197     H      0.486290000000     0.527850000000     0.136020000000     0.0419934  
H198     H      0.539420000000     0.491120000000     0.130690000000     0.0378254  
H199     H      0.569800000000     0.519850000000     0.326620000000     0.0368511  
H200     H      0.493720000000     0.537070000000     0.325250000000     0.0377786  
H201     H      0.855770000000     0.233800000000     0.795930000000     0.036765   
H202     H      0.907040000000     0.198510000000     0.793660000000     0.0396944  
H203     H      0.896080000000     0.165900000000     0.892390000000     0.040858   
H204     H      0.835380000000     0.226640000000     0.896910000000     0.0409633  
H205     H      0.867890000000     0.237490000000     0.995670000000     0.0398055  
H206     H      0.863850000000     0.150340000000     0.986600000000     0.0419308  
H207     H      0.819910000000     0.194510000000     0.802670000000     0.0419582  
H208     H      0.873010000000     0.157720000000     0.797360000000     0.0377229  
H209     H      0.903140000000     0.186190000000     0.993390000000     0.0367422  
H210     H      0.827100000000     0.203460000000     0.991920000000     0.03782    
H211     H      0.817190000000     0.191780000000     0.302670000000     0.0419634  
H212     H      0.853970000000     0.138680000000     0.297370000000     0.0377897  
H213     H      0.845780000000     0.115600000000     0.392400000000     0.0409043  
H214     H      0.785050000000     0.176310000000     0.396900000000     0.0409406  
H215     H      0.808220000000     0.184590000000     0.491920000000     0.0377748  
H216     H      0.825490000000     0.108530000000     0.493400000000     0.0367958  
H217     H      0.777910000000     0.155920000000     0.295920000000     0.0368306  
H218     H      0.813180000000     0.104650000000     0.293660000000     0.0398486  
H219     H      0.861330000000     0.147820000000     0.486600000000     0.0419111  
H220     H      0.774190000000     0.143800000000     0.495670000000     0.0398221  
H221     H      0.111240000000     0.290430000000     0.462560000000     0.0369061  
H222     H      0.146440000000     0.376950000000     0.460200000000     0.0399039  
H223     H      0.179020000000     0.398620000000     0.558940000000     0.0409739  
H224     H      0.118370000000     0.277220000000     0.563580000000     0.0410582  
H225     H      0.107450000000     0.298880000000     0.662280000000     0.0399293  
H226     H      0.194570000000     0.381960000000     0.653200000000     0.0420149  
H227     H      0.150540000000     0.293880000000     0.469360000000     0.0420112  
H228     H      0.187240000000     0.383730000000     0.463940000000     0.0378151  
H229     H      0.158710000000     0.385400000000     0.659930000000     0.036886   
H230     H      0.141500000000     0.292110000000     0.658610000000     0.0378444  
H231     H      0.201300000000     0.298890000000     0.162350000000     0.0398781  
H232     H      0.236500000000     0.385410000000     0.160010000000     0.0368168  
H233     H      0.229370000000     0.398630000000     0.058990000000     0.0410222  
H234     H      0.168710000000     0.277230000000     0.063620000000     0.0410309  
H235     H      0.189010000000     0.290450000000     0.962620000000     0.0368502  
H236     H      0.206240000000     0.383750000000     0.963960000000     0.0377938  
H237     H      0.160490000000     0.292110000000     0.158620000000     0.0378456  
H238     H      0.197200000000     0.381970000000     0.153210000000     0.04198    
H239     H      0.240280000000     0.376980000000     0.960280000000     0.0398252  
H240     H      0.153160000000     0.293900000000     0.969370000000     0.0420249  
H241     H      0.076650000000     0.254100000000     0.237460000000     0.0389394  
H242     H      0.078510000000     0.332390000000     0.233690000000     0.0405442  
H243     H      0.007140000000     0.311710000000     0.227890000000     0.0424263  
H244     H      0.007250000000     0.206520000000     0.227990000000     0.0406052  
H245     H      0.954250000000     0.194780000000     0.159900000000     0.0392679  
H246     H      0.935790000000     0.260960000000     0.222120000000     0.040326   
H247     H      0.060220000000     0.247840000000     0.296060000000     0.0395704  
H248     H      0.062630000000     0.325350000000     0.292660000000     0.0390761  
H249     H      0.951680000000     0.269800000000     0.163150000000     0.0388029  
H250     H      0.937820000000     0.184600000000     0.218500000000     0.0386793  
H251     H      0.411920000000     0.414840000000     0.400470000000     0.0405009  
H252     H      0.409910000000     0.491210000000     0.404100000000     0.0388442  
H253     H      0.340480000000     0.469310000000     0.394600000000     0.0405489  
H254     H      0.340580000000     0.364110000000     0.394680000000     0.0424193  
H255     H      0.285100000000     0.350490000000     0.329900000000     0.0390009  
H256     H      0.271080000000     0.421740000000     0.385110000000     0.038851   
H257     H      0.396040000000     0.406010000000     0.459440000000     0.0390109  
H258     H      0.393480000000     0.481030000000     0.462700000000     0.0394498  
H259     H      0.287520000000     0.428000000000     0.326520000000     0.0394598  
H260     H      0.269210000000     0.343430000000     0.388870000000     0.0404848  
H261     H      0.534450000000     0.965230000000     0.829490000000     0.0398332  
H262     H      0.569670000000     0.051750000000     0.827140000000     0.0368389  
H263     H      0.562540000000     0.064980000000     0.726120000000     0.0409609  
H264     H      0.501880000000     0.943580000000     0.730740000000     0.0409817  
H265     H      0.522190000000     0.956800000000     0.629750000000     0.0368127  
H266     H      0.539410000000     0.050100000000     0.631090000000     0.0378071  
H267     H      0.493650000000     0.958460000000     0.825740000000     0.0377908  
H268     H      0.530370000000     0.048310000000     0.820340000000     0.0420009  
H269     H      0.573440000000     0.043320000000     0.627410000000     0.0398595  
H270     H      0.486330000000     0.960240000000     0.636490000000     0.0419605  
H271     H      0.491820000000     0.051770000000     0.327090000000     0.0368257  
H272     H      0.440580000000     0.965240000000     0.329430000000     0.0397983  
H273     H      0.451560000000     0.943590000000     0.230730000000     0.0409573  
H274     H      0.512200000000     0.065000000000     0.226110000000     0.0409569  
H275     H      0.479700000000     0.043340000000     0.127350000000     0.039839   
H276     H      0.483800000000     0.960260000000     0.136530000000     0.0419862  
H277     H      0.527690000000     0.048340000000     0.320370000000     0.0419862  
H278     H      0.474630000000     0.958480000000     0.325760000000     0.0377703  
H279     H      0.444490000000     0.956810000000     0.129710000000     0.0368506  
H280     H      0.520500000000     0.050110000000     0.131120000000     0.0377852  
H281     H      0.602460000000     0.009760000000     0.055910000000     0.040477   
H282     H      0.604370000000     0.088070000000     0.052150000000     0.0388684  
H283     H      0.673780000000     0.135630000000     0.061470000000     0.0405327  
H284     H      0.673840000000     0.030410000000     0.061560000000     0.0424083  
H285     H      0.729370000000     0.072330000000     0.126190000000     0.0389865  
H286     H      0.743210000000     0.157520000000     0.070820000000     0.0388926  
H287     H      0.618290000000     0.016760000000     0.996910000000     0.038883   
H288     H      0.620740000000     0.094300000000     0.993520000000     0.0393812  
H289     H      0.726830000000     0.147370000000     0.129450000000     0.0395038  
H290     H      0.745210000000     0.081150000000     0.067190000000     0.0404888  
H291     H      0.189050000000     0.900590000000     0.463250000000     0.0368827  
H292     H      0.240310000000     0.865310000000     0.460980000000     0.0398636  
H293     H      0.229310000000     0.832650000000     0.559690000000     0.0409817  
H294     H      0.168650000000     0.893420000000     0.564220000000     0.0410342  
H295     H      0.201130000000     0.904230000000     0.662990000000     0.0398728  
H296     H      0.197050000000     0.817070000000     0.653890000000     0.041975   
H297     H      0.153190000000     0.861310000000     0.469960000000     0.0420614  
H298     H      0.206280000000     0.824510000000     0.464640000000     0.0378091  
H299     H      0.236350000000     0.852890000000     0.660700000000     0.0368168  
H300     H      0.160340000000     0.870220000000     0.659220000000     0.0378389  
H301     H      0.194620000000     0.814660000000     0.153840000000     0.0419908  
H302     H      0.141490000000     0.851390000000     0.159190000000     0.0378681  
H303     H      0.118270000000     0.843060000000     0.064210000000     0.0410948  
H304     H      0.179020000000     0.782380000000     0.059690000000     0.041019   
H305     H      0.187140000000     0.805390000000     0.964610000000     0.0377638  
H306     H      0.111070000000     0.822630000000     0.963270000000     0.0369271  
H307     H      0.158800000000     0.775370000000     0.160730000000     0.0368903  
H308     H      0.107470000000     0.810600000000     0.163020000000     0.0399672  
H309     H      0.150360000000     0.858500000000     0.969920000000     0.0420556  
H310     H      0.146340000000     0.771360000000     0.961010000000     0.0398285  
H311     H      0.395890000000     0.991840000000     0.959950000000     0.0389919  
H312     H      0.393390000000     0.914280000000     0.963300000000     0.0394798  
H313     H      0.340360000000     0.873000000000     0.895280000000     0.0405528  
H314     H      0.340390000000     0.978270000000     0.895230000000     0.0423938  
H315     H      0.269020000000     0.927580000000     0.889490000000     0.0405058  
H316     H      0.287360000000     0.861340000000     0.827230000000     0.039492   
H317     H      0.411740000000     0.998860000000     0.900960000000     0.0405074  
H318     H      0.409780000000     0.920510000000     0.904690000000     0.0388868  
H319     H      0.270940000000     0.851170000000     0.885840000000     0.0388608  
H320     H      0.284900000000     0.936410000000     0.830520000000     0.039024   
H321     H      0.777880000000     0.623870000000     0.795900000000     0.0368127  
H322     H      0.813110000000     0.710390000000     0.793560000000     0.0398225  
H323     H      0.845740000000     0.732040000000     0.892270000000     0.0408962  
H324     H      0.785060000000     0.610640000000     0.896900000000     0.0409426  
H325     H      0.774210000000     0.632290000000     0.995630000000     0.0398426  
H326     H      0.861320000000     0.715370000000     0.986500000000     0.0418899  
H327     H      0.817170000000     0.627290000000     0.802650000000     0.0419447  
H328     H      0.853910000000     0.717150000000     0.797250000000     0.0377641  
H329     H      0.825470000000     0.718820000000     0.993280000000     0.0367905  
H330     H      0.808250000000     0.625530000000     0.991900000000     0.0377754  
H331     H      0.868000000000     0.632330000000     0.495710000000     0.0398     
H332     H      0.903200000000     0.718850000000     0.493360000000     0.0367229  
H333     H      0.896080000000     0.732070000000     0.392330000000     0.0409087  
H334     H      0.835440000000     0.610680000000     0.396960000000     0.040976   
H335     H      0.855770000000     0.623900000000     0.295970000000     0.0367926  
H336     H      0.872960000000     0.717180000000     0.297290000000     0.0377543  
H337     H      0.827190000000     0.625550000000     0.491950000000     0.0378002  
H338     H      0.863900000000     0.715410000000     0.486550000000     0.0419137  
H339     H      0.907010000000     0.710430000000     0.293630000000     0.0397292  
H340     H      0.819900000000     0.627330000000     0.302690000000     0.0419691  
H341     H      0.618380000000     0.603430000000     0.496450000000     0.039024   
H342     H      0.620900000000     0.528390000000     0.493160000000     0.0394552  
H343     H      0.673900000000     0.540080000000     0.561240000000     0.0405278  
H344     H      0.673870000000     0.645320000000     0.561190000000     0.0424232  
H345     H      0.745240000000     0.665950000000     0.566980000000     0.0405018  
H346     H      0.726870000000     0.581360000000     0.629300000000     0.0394765  
H347     H      0.602510000000     0.594600000000     0.555420000000     0.0405143  
H348     H      0.604480000000     0.518220000000     0.551770000000     0.0388657  
H349     H      0.743310000000     0.587620000000     0.570710000000     0.0388651  
H350     H      0.729350000000     0.658910000000     0.625940000000     0.0389972  
H351     H      0.060000000000     0.814170000000     0.796570000000     0.0395412  
H352     H      0.062480000000     0.739110000000     0.793280000000     0.0390486  
H353     H      0.007100000000     0.697310000000     0.728330000000     0.042421   
H354     H      0.007120000000     0.802570000000     0.728290000000     0.040548   
H355     H      0.937720000000     0.755070000000     0.718550000000     0.038671   
H356     H      0.951740000000     0.683810000000     0.663370000000     0.0387894  
H357     H      0.076510000000     0.824400000000     0.738020000000     0.0389161  
H358     H      0.078440000000     0.747980000000     0.734350000000     0.0405283  
H359     H      0.935750000000     0.676710000000     0.722280000000     0.0403392  
H360     H      0.954250000000     0.761360000000     0.660010000000     0.0392289  
N1       N      0.791470000000     0.081020000000     0.683530000000    -0.181331   
N2       N      0.714860000000     0.927990000000     0.772410000000    -0.181311   
N3       N      0.966300000000     0.414350000000     0.516880000000    -0.18108    
N4       N      0.889770000000     0.261320000000     0.605760000000    -0.18131    
N5       N      0.048340000000     0.594690000000     0.439250000000    -0.181222   
N6       N      0.124840000000     0.747830000000     0.350770000000    -0.181286   
N7       N      0.632680000000     0.747660000000     0.850150000000    -0.181277   
N8       N      0.556110000000     0.594640000000     0.939050000000    -0.181372   
N9       N      0.222990000000     0.928150000000     0.273060000000    -0.181298   
N10      N      0.299380000000     0.081080000000     0.183810000000    -0.181344   
N11      N      0.381370000000     0.261350000000     0.105870000000    -0.181275   
N12      N      0.457850000000     0.414340000000     0.016850000000    -0.181311   
N13      N      0.675580000000     0.816910000000     0.442460000000    -0.181168   
N14      N      0.671960000000     0.815120000000     0.680110000000    -0.181173   
N15      N      0.671940000000     0.858740000000     0.180100000000    -0.181267   
N16      N      0.675570000000     0.860530000000     0.942440000000    -0.181146   
N17      N      0.714850000000     0.788750000000     0.272420000000    -0.181373   
N18      N      0.791440000000     0.712350000000     0.183380000000    -0.181341   
N19      N      0.556160000000     0.963280000000     0.439540000000    -0.181381   
N20      N      0.632670000000     0.886910000000     0.350160000000    -0.181205   
N21      N      0.005520000000     0.525610000000     0.846860000000    -0.180965   
N22      N      0.009120000000     0.527210000000     0.609210000000    -0.180935   
N23      N      0.005540000000     0.481850000000     0.346870000000    -0.18095    
N24      N      0.009150000000     0.483780000000     0.109220000000    -0.180986   
N25      N      0.966310000000     0.553850000000     0.016890000000    -0.181234   
N26      N      0.889790000000     0.630340000000     0.105840000000    -0.181436   
N27      N      0.342160000000     0.150170000000     0.776040000000    -0.181151   
N28      N      0.338550000000     0.148460000000     0.013690000000    -0.181232   
N29      N      0.342190000000     0.193940000000     0.275990000000    -0.181215   
N30      N      0.338570000000     0.191950000000     0.513640000000    -0.181224   
N31      N      0.381380000000     0.121870000000     0.606070000000    -0.181272   
N32      N      0.457870000000     0.045310000000     0.517270000000    -0.181439   
N33      N      0.124770000000     0.379010000000     0.850090000000    -0.1813     
N34      N      0.048350000000     0.455560000000     0.939190000000    -0.181255   
N35      N      0.222960000000     0.296840000000     0.772490000000    -0.181366   
N36      N      0.299370000000     0.220230000000     0.683590000000    -0.181325   
N37      N      0.484490000000     0.483820000000     0.609120000000    -0.181196   
N38      N      0.486080000000     0.481790000000     0.846780000000    -0.181248   
N39      N      0.529880000000     0.525600000000     0.346760000000    -0.181173   
N40      N      0.527890000000     0.527220000000     0.109110000000    -0.181148   
N41      N      0.863230000000     0.191950000000     0.013470000000    -0.181066   
N42      N      0.861520000000     0.193870000000     0.775820000000    -0.181209   
N43      N      0.819720000000     0.148460000000     0.513480000000    -0.181268   
N44      N      0.817830000000     0.150170000000     0.275820000000    -0.181186   
N45      N      0.152970000000     0.339730000000     0.680090000000    -0.181156   
N46      N      0.151130000000     0.336100000000     0.442430000000    -0.181211   
N47      N      0.194760000000     0.336120000000     0.942480000000    -0.181145   
N48      N      0.196600000000     0.339740000000     0.180130000000    -0.181224   
N49      N      0.930680000000     0.220210000000     0.183530000000    -0.181269   
N50      N      0.083710000000     0.296830000000     0.272360000000    -0.181228   
N51      N      0.264020000000     0.379010000000     0.350200000000    -0.181286   
N52      N      0.417050000000     0.455590000000     0.439070000000    -0.181339   
N53      N      0.527930000000     0.002470000000     0.609600000000    -0.1812     
N54      N      0.529760000000     0.006080000000     0.847260000000    -0.181248   
N55      N      0.484390000000     0.002490000000     0.109600000000    -0.181173   
N56      N      0.486090000000     0.006100000000     0.347250000000    -0.181237   
N57      N      0.750370000000     0.121910000000     0.105790000000    -0.181246   
N58      N      0.597250000000     0.045320000000     0.017250000000    -0.181341   
N59      N      0.196450000000     0.858680000000     0.680780000000    -0.181166   
N60      N      0.194800000000     0.860680000000     0.443120000000    -0.181193   
N61      N      0.150980000000     0.816870000000     0.943110000000    -0.181217   
N62      N      0.153020000000     0.815280000000     0.180770000000    -0.181116   
N63      N      0.263840000000     0.886820000000     0.850880000000    -0.181323   
N64      N      0.416910000000     0.963270000000     0.939600000000    -0.18121    
N65      N      0.819730000000     0.673150000000     0.013410000000    -0.181094   
N66      N      0.817780000000     0.669530000000     0.775760000000    -0.181165   
N67      N      0.861500000000     0.669560000000     0.275810000000    -0.181259   
N68      N      0.863300000000     0.673180000000     0.513470000000    -0.181237   
N69      N      0.750400000000     0.630350000000     0.605630000000    -0.181265   
N70      N      0.597360000000     0.553850000000     0.516820000000    -0.181296   
N71      N      0.930660000000     0.712350000000     0.683630000000    -0.181386   
N72      N      0.083560000000     0.788720000000     0.772970000000    -0.181205   
O1       O      0.849590000000     0.647990000000     0.584490000000    -0.557713   
O2       O      0.825650000000     0.645350000000     0.711990000000    -0.556593   
O3       O      0.794120000000     0.627180000000     0.630170000000    -0.560088   
O4       O      0.882470000000     0.666730000000     0.666390000000    -0.554306   
O5       O      0.886950000000     0.715530000000     0.659050000000    -0.560142   
O6       O      0.798600000000     0.675980000000     0.622830000000    -0.554281   
O7       O      0.831490000000     0.694730000000     0.704730000000    -0.557848   
O8       O      0.855420000000     0.697360000000     0.577230000000    -0.556702   
O9       O      0.188560000000     0.826620000000     0.744580000000    -0.556597   
O10      O      0.164660000000     0.805360000000     0.872100000000    -0.55774    
O11      O      0.131750000000     0.791240000000     0.790210000000    -0.554182   
O12      O      0.220110000000     0.839960000000     0.826380000000    -0.560266   
O13      O      0.215650000000     0.884290000000     0.833670000000    -0.554297   
O14      O      0.127290000000     0.835580000000     0.797500000000    -0.560051   
O15      O      0.158840000000     0.848910000000     0.879300000000    -0.556758   
O16      O      0.182750000000     0.870180000000     0.751790000000    -0.55787    
O17      O      0.516090000000     0.980900000000     0.918290000000    -0.557624   
O18      O      0.492250000000     0.978300000000     0.045820000000    -0.556462   
O19      O      0.460660000000     0.960100000000     0.964050000000    -0.560228   
O20      O      0.549040000000     0.999680000000     0.000140000000    -0.554055   
O21      O      0.553500000000     0.048470000000     0.992800000000    -0.560188   
O22      O      0.465120000000     0.008890000000     0.956720000000    -0.554251   
O23      O      0.498070000000     0.027670000000     0.038560000000    -0.557699   
O24      O      0.521910000000     0.030270000000     0.911030000000    -0.55673    
O25      O      0.159030000000     0.311930000000     0.378670000000    -0.556786   
O26      O      0.182930000000     0.314560000000     0.251160000000    -0.557644   
O27      O      0.215840000000     0.333360000000     0.333040000000    -0.554286   
O28      O      0.127470000000     0.293710000000     0.296880000000    -0.560165   
O29      O      0.131890000000     0.342480000000     0.289520000000    -0.554259   
O30      O      0.220260000000     0.382130000000     0.325690000000    -0.560156   
O31      O      0.188710000000     0.363910000000     0.243890000000    -0.556711   
O32      O      0.164810000000     0.361280000000     0.371400000000    -0.557822   
O33      O      0.831530000000     0.138670000000     0.204820000000    -0.557714   
O34      O      0.855390000000     0.159920000000     0.077290000000    -0.556473   
O35      O      0.886970000000     0.173310000000     0.159070000000    -0.559851   
O36      O      0.798600000000     0.124500000000     0.122950000000    -0.554144   
O37      O      0.794090000000     0.168810000000     0.130230000000    -0.56009    
O38      O      0.882450000000     0.217620000000     0.166340000000    -0.554239   
O39      O      0.849520000000     0.203450000000     0.084480000000    -0.55765    
O40      O      0.825660000000     0.182200000000     0.212010000000    -0.556636   
O41      O      0.522060000000     0.493580000000     0.410580000000    -0.556777   
O42      O      0.498200000000     0.472330000000     0.538110000000    -0.557803   
O43      O      0.465270000000     0.458170000000     0.456250000000    -0.554181   
O44      O      0.553630000000     0.506960000000     0.492370000000    -0.560211   
O45      O      0.549140000000     0.551270000000     0.499640000000    -0.554298   
O46      O      0.460770000000     0.502480000000     0.463530000000    -0.560261   
O47      O      0.492340000000     0.515860000000     0.545310000000    -0.556599   
O48      O      0.516200000000     0.537110000000     0.417780000000    -0.557666   
O49      O      0.185010000000     0.363910000000     0.743880000000    -0.556721   
O50      O      0.206260000000     0.361300000000     0.871430000000    -0.557662   
O51      O      0.220400000000     0.342490000000     0.789600000000    -0.554242   
O52      O      0.171640000000     0.382140000000     0.825630000000    -0.560094   
O53      O      0.127320000000     0.333360000000     0.832960000000    -0.554277   
O54      O      0.176080000000     0.293720000000     0.796930000000    -0.560182   
O55      O      0.162720000000     0.311950000000     0.878680000000    -0.556688   
O56      O      0.141470000000     0.314560000000     0.751130000000    -0.557749   
O57      O      0.366350000000     0.182180000000     0.712220000000    -0.556773   
O58      O      0.363760000000     0.203430000000     0.584670000000    -0.557755   
O59      O      0.344990000000     0.217620000000     0.666490000000    -0.554425   
O60      O      0.384550000000     0.168770000000     0.630480000000    -0.560071   
O61      O      0.335750000000     0.124480000000     0.623170000000    -0.554254   
O62      O      0.296200000000     0.173330000000     0.659170000000    -0.560332   
O63      O      0.314390000000     0.159920000000     0.577430000000    -0.55664    
O64      O      0.316980000000     0.138670000000     0.704990000000    -0.557703   
O65      O      0.033320000000     0.515830000000     0.045430000000    -0.556931   
O66      O      0.030710000000     0.537100000000     0.917890000000    -0.557964   
O67      O      0.011940000000     0.551270000000     0.999740000000    -0.553644   
O68      O      0.051510000000     0.502450000000     0.963670000000    -0.560358   
O69      O      0.002720000000     0.458150000000     0.956340000000    -0.553696   
O70      O      0.963150000000     0.506960000000     0.992430000000    -0.559985   
O71      O      0.981340000000     0.493590000000     0.910660000000    -0.557318   
O72      O      0.983960000000     0.472310000000     0.038190000000    -0.55827    
O73      O      0.697120000000     0.870230000000     0.251130000000    -0.557748   
O74      O      0.699750000000     0.848960000000     0.378670000000    -0.556711   
O75      O      0.717960000000     0.835610000000     0.296900000000    -0.560467   
O76      O      0.678320000000     0.884360000000     0.332990000000    -0.554349   
O77      O      0.629550000000     0.840040000000     0.325650000000    -0.560178   
O78      O      0.669200000000     0.791290000000     0.289570000000    -0.554409   
O79      O      0.650400000000     0.805420000000     0.371420000000    -0.557804   
O80      O      0.647770000000     0.826700000000     0.243890000000    -0.556708   
O81      O      0.872990000000     0.694740000000     0.204770000000    -0.557995   
O82      O      0.851750000000     0.697340000000     0.077210000000    -0.556686   
O83      O      0.838340000000     0.715530000000     0.158950000000    -0.560303   
O84      O      0.887180000000     0.675970000000     0.122950000000    -0.554438   
O85      O      0.842900000000     0.627180000000     0.130260000000    -0.560355   
O86      O      0.794050000000     0.666730000000     0.166270000000    -0.554324   
O87      O      0.808240000000     0.647970000000     0.084450000000    -0.557826   
O88      O      0.829490000000     0.645370000000     0.212000000000    -0.556815   
O89      O      0.539410000000     0.027660000000     0.538570000000    -0.557717   
O90      O      0.518130000000     0.030280000000     0.411040000000    -0.556815   
O91      O      0.504750000000     0.048470000000     0.492810000000    -0.560373   
O92      O      0.553560000000     0.008900000000     0.456720000000    -0.554407   
O93      O      0.509270000000     0.960110000000     0.464040000000    -0.560482   
O94      O      0.460460000000     0.999680000000     0.500130000000    -0.554316   
O95      O      0.474620000000     0.980910000000     0.418280000000    -0.557844   
O96      O      0.495890000000     0.978290000000     0.545810000000    -0.556804   
O97      O      0.314380000000     0.156340000000     0.077450000000    -0.556639   
O98      O      0.317000000000     0.180250000000     0.204960000000    -0.557718   
O99      O      0.335750000000     0.213160000000     0.123070000000    -0.55413    
O100     O      0.296200000000     0.124790000000     0.159260000000    -0.559952   
O101     O      0.345000000000     0.129270000000     0.166600000000    -0.55419    
O102     O      0.384550000000     0.217630000000     0.130400000000    -0.560241   
O103     O      0.366370000000     0.186080000000     0.212210000000    -0.556681   
O104     O      0.363740000000     0.162170000000     0.084710000000    -0.558102   
O105     O      0.495840000000     0.519360000000     0.045310000000    -0.556576   
O106     O      0.474580000000     0.495490000000     0.917780000000    -0.557755   
O107     O      0.460420000000     0.462560000000     0.999660000000    -0.554263   
O108     O      0.509220000000     0.550930000000     0.963520000000    -0.560271   
O109     O      0.553520000000     0.546420000000     0.956240000000    -0.554413   
O110     O      0.504730000000     0.458060000000     0.992380000000    -0.560415   
O111     O      0.518100000000     0.489620000000     0.910590000000    -0.556886   
O112     O      0.539370000000     0.513500000000     0.038110000000    -0.557652   
O113     O      0.141520000000     0.828980000000     0.251780000000    -0.557734   
O114     O      0.162770000000     0.852830000000     0.379310000000    -0.556773   
O115     O      0.176130000000     0.884420000000     0.297540000000    -0.5603     
O116     O      0.127390000000     0.796040000000     0.333630000000    -0.554224   
O117     O      0.171720000000     0.791570000000     0.326340000000    -0.560061   
O118     O      0.220450000000     0.879950000000     0.290240000000    -0.554405   
O119     O      0.206320000000     0.847010000000     0.372100000000    -0.557637   
O120     O      0.185070000000     0.823150000000     0.244560000000    -0.556479   
O121     O      0.983940000000     0.513530000000     0.538180000000    -0.558243   
O122     O      0.981340000000     0.489690000000     0.410650000000    -0.557137   
O123     O      0.963140000000     0.458100000000     0.492420000000    -0.559798   
O124     O      0.002720000000     0.546480000000     0.456350000000    -0.553771   
O125     O      0.051510000000     0.550940000000     0.463680000000    -0.560243   
O126     O      0.011930000000     0.462550000000     0.499750000000    -0.553369   
O127     O      0.030710000000     0.495510000000     0.417910000000    -0.55796    
O128     O      0.033310000000     0.519340000000     0.545440000000    -0.556708   
O129     O      0.829490000000     0.186040000000     0.712010000000    -0.556652   
O130     O      0.808240000000     0.162170000000     0.584480000000    -0.557728   
O131     O      0.794070000000     0.129250000000     0.666350000000    -0.554297   
O132     O      0.842880000000     0.217610000000     0.630220000000    -0.560343   
O133     O      0.887180000000     0.213100000000     0.622940000000    -0.5544     
O134     O      0.838370000000     0.124730000000     0.659080000000    -0.560096   
O135     O      0.851760000000     0.156300000000     0.577290000000    -0.55687    
O136     O      0.873010000000     0.180160000000     0.704810000000    -0.557723   
O137     O      0.647790000000     0.823000000000     0.743880000000    -0.556788   
O138     O      0.650400000000     0.846870000000     0.871400000000    -0.557679   
O139     O      0.669210000000     0.879810000000     0.789540000000    -0.55426    
O140     O      0.629560000000     0.791430000000     0.825660000000    -0.560155   
O141     O      0.678330000000     0.795840000000     0.833010000000    -0.55416    
O142     O      0.717980000000     0.884230000000     0.796900000000    -0.560143   
O143     O      0.699750000000     0.852650000000     0.878670000000    -0.556745   
O144     O      0.697140000000     0.828780000000     0.751150000000    -0.55768    
V1       V      0.837870000000     0.644900000000     0.648650000000     1.39394    
V2       V      0.843200000000     0.697810000000     0.640580000000     1.3941     
V3       V      0.176360000000     0.813970000000     0.807930000000     1.39414    
V4       V      0.171040000000     0.861560000000     0.815950000000     1.39442    
V5       V      0.504420000000     0.977840000000     0.982460000000     1.39386    
V6       V      0.509740000000     0.030740000000     0.974390000000     1.39395    
V7       V      0.171230000000     0.311480000000     0.315330000000     1.39415    
V8       V      0.176500000000     0.364360000000     0.307240000000     1.39406    
V9       V      0.843210000000     0.147280000000     0.140650000000     1.39383    
V10      V      0.837840000000     0.194840000000     0.148650000000     1.39429    
V11      V      0.509880000000     0.480940000000     0.473940000000     1.39432    
V12      V      0.504520000000     0.528500000000     0.481950000000     1.39407    
V13      V      0.197650000000     0.364370000000     0.807250000000     1.3939     
V14      V      0.150080000000     0.311490000000     0.815310000000     1.39443    
V15      V      0.366820000000     0.194820000000     0.648850000000     1.39409    
V16      V      0.313920000000     0.147280000000     0.640810000000     1.39421    
V17      V      0.033780000000     0.528480000000     0.982070000000     1.39515    
V18      V      0.980880000000     0.480930000000     0.974020000000     1.39287    
V19      V      0.700200000000     0.861610000000     0.315310000000     1.39424    
V20      V      0.647320000000     0.814040000000     0.307250000000     1.39413    
V21      V      0.864390000000     0.697810000000     0.140590000000     1.39425    
V22      V      0.816850000000     0.644900000000     0.148630000000     1.39446    
V23      V      0.530780000000     0.030740000000     0.474400000000     1.39449    
V24      V      0.483240000000     0.977830000000     0.482450000000     1.39462    
V25      V      0.313920000000     0.168550000000     0.140800000000     1.3938     
V26      V      0.366830000000     0.173880000000     0.148860000000     1.39448    
V27      V      0.483190000000     0.507180000000     0.981950000000     1.39387    
V28      V      0.530750000000     0.501810000000     0.973940000000     1.39452    
V29      V      0.150130000000     0.840660000000     0.315950000000     1.39446    
V30      V      0.197710000000     0.835330000000     0.307930000000     1.39394    
V31      V      0.980880000000     0.501860000000     0.474010000000     1.39287    
V32      V      0.033780000000     0.507180000000     0.482080000000     1.39491    
V33      V      0.816850000000     0.173860000000     0.648650000000     1.39436    
V34      V      0.864400000000     0.168480000000     0.640640000000     1.39413    
V35      V      0.647330000000     0.835190000000     0.807230000000     1.39425    
V36      V      0.700210000000     0.840460000000     0.815320000000     1.3939     


