data_structure

_audit_creation_method RASPA-1.0
_audit_creation_date 2023-5-23
_audit_author_name 'Poobodin Mano'

_cell_length_a    43.5621
_cell_length_b    43.6143
_cell_length_c    29.1454
_cell_angle_alpha 89.9998
_cell_angle_beta  90
_cell_angle_gamma 90
_cell_volume      55374.2

_symmetry_cell_setting          triclinic
_symmetry_space_group_name_Hall 'P 1'
_symmetry_space_group_name_H-M  'P 1'
_symmetry_Int_Tables_number     1

_symmetry_equiv_pos_as_xyz 'x,y,z'

loop_
_atom_site_label
_atom_site_type_symbol
_atom_site_fract_x
_atom_site_fract_y
_atom_site_fract_z
_atom_site_charge
C1       C      0.277970000000     0.003510000000     0.026060000000     0.473355   
C2       C      0.393970000000     0.002730000000     0.018240000000     0.472524   
C3       C      0.333570000000     0.001010000000     0.935650000000     0.472597   
C4       C      0.338240000000     0.004970000000     0.108960000000     0.473246   
C5       C      0.274710000000     0.001580000000     0.522500000000     0.474406   
C6       C      0.390730000000     0.002530000000     0.520860000000     0.473483   
C7       C      0.332450000000     0.004060000000     0.435420000000     0.473047   
C8       C      0.333080000000     0.000200000000     0.608880000000     0.470502   
C9       C      0.007140000000     0.727570000000     0.000430000000     0.474391   
C10      C      0.008140000000     0.611750000000     0.006180000000     0.473694   
C11      C      0.005740000000     0.667780000000     0.917040000000     0.473943   
C12      C      0.009720000000     0.671570000000     0.090400000000     0.473199   
C13      C      0.006400000000     0.727670000000     0.506980000000     0.473861   
C14      C      0.009040000000     0.611780000000     0.501460000000     0.47261    
C15      C      0.009830000000     0.671590000000     0.417210000000     0.472981   
C16      C      0.005810000000     0.667900000000     0.590570000000     0.473751   
C17      C      0.727400000000     0.002350000000     0.976100000000     0.472992   
C18      C      0.611390000000     0.003180000000     0.983980000000     0.472539   
C19      C      0.666980000000     0.000890000000     0.893240000000     0.473187   
C20      C      0.671690000000     0.004900000000     0.066560000000     0.472707   
C21      C      0.723360000000     0.004290000000     0.479790000000     0.474537   
C22      C      0.607370000000     0.003360000000     0.480920000000     0.473512   
C23      C      0.665310000000     0.005850000000     0.393150000000     0.472849   
C24      C      0.665620000000     0.001660000000     0.566600000000     0.473079   
C25      C      0.060180000000     0.002610000000     0.012860000000     0.473417   
C26      C      0.945260000000     0.002770000000     0.988390000000     0.473859   
C27      C      0.003120000000     0.060370000000     0.008480000000     0.474684   
C28      C      0.002490000000     0.945000000000     0.992770000000     0.474961   
C29      C      0.056810000000     0.002660000000     0.506480000000     0.473698   
C30      C      0.941080000000     0.002470000000     0.497160000000     0.476899   
C31      C      0.998750000000     0.060080000000     0.491680000000     0.479088   
C32      C      0.998240000000     0.945070000000     0.511930000000     0.478799   
C33      C      0.006590000000     0.277900000000     0.005560000000     0.474762   
C34      C      0.007420000000     0.393660000000     0.997580000000     0.473945   
C35      C      0.006560000000     0.333130000000     0.914460000000     0.473272   
C36      C      0.007450000000     0.338340000000     0.087840000000     0.473975   
C37      C      0.005890000000     0.277550000000     0.496840000000     0.473579   
C38      C      0.008680000000     0.393400000000     0.504430000000     0.473366   
C39      C      0.007000000000     0.337940000000     0.414290000000     0.474179   
C40      C      0.007710000000     0.332950000000     0.587680000000     0.472998   
C41      C      0.034510000000     0.331250000000     0.839970000000    -0.0149056  
C42      C      0.979710000000     0.331960000000     0.662180000000    -0.0156864  
C43      C      0.035490000000     0.330580000000     0.662650000000    -0.0152475  
C44      C      0.023240000000     0.330530000000     0.710210000000     0.00624105 
C45      C      0.991430000000     0.331150000000     0.709900000000     0.014829   
C46      C      0.974390000000     0.331360000000     0.750710000000    -0.0678708  
C47      C      0.978710000000     0.331470000000     0.839510000000    -0.0159357  
C48      C      0.039800000000     0.330420000000     0.751440000000    -0.0628227  
C49      C      0.990950000000     0.331030000000     0.791940000000     0.0150495  
C50      C      0.022760000000     0.330740000000     0.792260000000     0.00601199 
C51      C      0.035420000000     0.339230000000     0.162590000000    -0.0148966  
C52      C      0.979070000000     0.339820000000     0.339540000000    -0.0157331  
C53      C      0.034870000000     0.339310000000     0.339760000000    -0.0146574  
C54      C      0.023020000000     0.339850000000     0.292130000000     0.00609603 
C55      C      0.991200000000     0.340250000000     0.291970000000     0.0151206  
C56      C      0.974540000000     0.340640000000     0.250870000000    -0.0679032  
C57      C      0.979630000000     0.340550000000     0.162370000000    -0.0155377  
C58      C      0.039970000000     0.339570000000     0.251260000000    -0.0628376  
C59      C      0.991490000000     0.340530000000     0.210000000000     0.0149415  
C60      C      0.023300000000     0.339890000000     0.210160000000     0.00626054 
C61      C      0.978060000000     0.110420000000     0.515900000000    -0.0185716  
C62      C      0.027580000000     0.227280000000     0.471230000000    -0.0156488  
C63      C      0.979760000000     0.228350000000     0.514230000000    -0.0165133  
C64      C      0.988620000000     0.196430000000     0.503180000000     0.0162955  
C65      C      0.014750000000     0.195810000000     0.476050000000     0.00593571 
C66      C      0.025840000000     0.168170000000     0.457540000000    -0.0625772  
C67      C      0.016810000000     0.108970000000     0.455920000000    -0.0175142  
C68      C      0.974590000000     0.169430000000     0.518290000000    -0.069127   
C69      C      0.010390000000     0.141160000000     0.470190000000     0.00624628 
C70      C      0.986770000000     0.141820000000     0.502040000000     0.0166916  
C71      C      0.024940000000     0.109840000000     0.982790000000    -0.0153192  
C72      C      0.983130000000     0.228710000000     0.031900000000    -0.0162384  
C73      C      0.030450000000     0.227630000000     0.987680000000    -0.0151562  
C74      C      0.019980000000     0.196140000000     0.998310000000     0.00732305 
C75      C      0.994200000000     0.196710000000     0.026190000000     0.0148505  
C76      C      0.981730000000     0.169590000000     0.044360000000    -0.0674714  
C77      C      0.987210000000     0.110030000000     0.044270000000    -0.0164088  
C78      C      0.032100000000     0.168550000000     0.981950000000    -0.0637062  
C79      C      0.995350000000     0.141900000000     0.030540000000     0.0149932  
C80      C      0.018460000000     0.141520000000     0.997830000000     0.00730864 
C81      C      0.772440000000     0.026310000000     0.507940000000    -0.0152889  
C82      C      0.892510000000     0.986600000000     0.458970000000    -0.0160666  
C83      C      0.890170000000     0.018830000000     0.526980000000    -0.0151434  
C84      C      0.858970000000     0.013270000000     0.508360000000     0.00652503 
C85      C      0.860190000000     0.993060000000     0.471710000000     0.0160486  
C86      C      0.833380000000     0.981050000000     0.452100000000    -0.0683374  
C87      C      0.773870000000     0.982490000000     0.456400000000    -0.0164523  
C88      C      0.831130000000     0.026100000000     0.522900000000    -0.0629115  
C89      C      0.805400000000     0.992250000000     0.468940000000     0.0160994  
C90      C      0.804440000000     0.015730000000     0.500970000000     0.00646676 
C91      C      0.664060000000     0.028340000000     0.641830000000    -0.0145834  
C92      C      0.667020000000     0.972210000000     0.818760000000    -0.0158182  
C93      C      0.664170000000     0.027870000000     0.818340000000    -0.0147684  
C94      C      0.664550000000     0.015800000000     0.770930000000     0.00621303 
C95      C      0.666200000000     0.984060000000     0.770920000000     0.0149805  
C96      C      0.667140000000     0.967380000000     0.729730000000    -0.0676047  
C97      C      0.667080000000     0.972700000000     0.640780000000    -0.0158123  
C98      C      0.663690000000     0.032650000000     0.730120000000    -0.0630369  
C99      C      0.666280000000     0.984290000000     0.688740000000     0.0149771  
C100     C      0.664580000000     0.016030000000     0.689100000000     0.00612711 
C101     C      0.670700000000     0.978180000000     0.141810000000    -0.0156847  
C102     C      0.667740000000     0.034510000000     0.318670000000    -0.0150855  
C103     C      0.665160000000     0.978850000000     0.318160000000    -0.0156112  
C104     C      0.667280000000     0.990860000000     0.270820000000     0.0156634  
C105     C      0.668740000000     0.022610000000     0.270850000000     0.00538396 
C106     C      0.670860000000     0.039250000000     0.229700000000    -0.0622099  
C107     C      0.673210000000     0.033850000000     0.140780000000    -0.0151262  
C108     C      0.667890000000     0.973970000000     0.230030000000    -0.0685574  
C109     C      0.671470000000     0.022280000000     0.188730000000     0.00536592 
C110     C      0.670040000000     0.990540000000     0.189070000000     0.0156858  
C111     C      0.894530000000     0.982460000000     0.011620000000    -0.0168236  
C112     C      0.777770000000     0.024500000000     0.951370000000    -0.0155508  
C113     C      0.776830000000     0.978270000000     0.997940000000    -0.0162947  
C114     C      0.808800000000     0.988200000000     0.989330000000     0.0168169  
C115     C      0.809510000000     0.013280000000     0.960150000000     0.00562171 
C116     C      0.837440000000     0.024960000000     0.943440000000    -0.0621089  
C117     C      0.896980000000     0.018600000000     0.948220000000    -0.0157612  
C118     C      0.835670000000     0.976160000000     0.008410000000    -0.0693592  
C119     C      0.864490000000     0.011350000000     0.960070000000     0.00580533 
C120     C      0.863430000000     0.989080000000     0.993960000000     0.0170938  
C121     C      0.037450000000     0.561930000000     0.501370000000    -0.015148   
C122     C      0.981440000000     0.443550000000     0.504960000000    -0.0157585  
C123     C      0.037230000000     0.443160000000     0.505870000000    -0.0150713  
C124     C      0.025430000000     0.475130000000     0.504700000000     0.00592994 
C125     C      0.993620000000     0.475250000000     0.504240000000     0.0153864  
C126     C      0.976890000000     0.502640000000     0.502930000000    -0.0681336  
C127     C      0.981650000000     0.561720000000     0.500860000000    -0.0158323  
C128     C      0.042310000000     0.502540000000     0.503760000000    -0.0624578  
C129     C      0.993720000000     0.529980000000     0.502050000000     0.0153891  
C130     C      0.025540000000     0.530000000000     0.502400000000     0.00596044 
C131     C      0.027120000000     0.778030000000     0.533890000000    -0.0157957  
C132     C      0.978810000000     0.894740000000     0.485450000000    -0.018827   
C133     C      0.014840000000     0.896210000000     0.549110000000    -0.0177347  
C134     C      0.009340000000     0.864040000000     0.533910000000     0.0065303  
C135     C      0.987150000000     0.863350000000     0.499850000000     0.0169344  
C136     C      0.975830000000     0.835710000000     0.482340000000    -0.069094   
C137     C      0.981090000000     0.776810000000     0.486760000000    -0.0164     
C138     C      0.024440000000     0.837090000000     0.547750000000    -0.062564   
C139     C      0.989380000000     0.808750000000     0.498560000000     0.0163273  
C140     C      0.014350000000     0.809450000000     0.528010000000     0.0061253  
C141     C      0.036110000000     0.561790000000     0.006300000000    -0.0150809  
C142     C      0.979840000000     0.443720000000     0.996520000000    -0.0155944  
C143     C      0.035640000000     0.443410000000     0.997940000000    -0.0147739  
C144     C      0.023820000000     0.475270000000     0.999620000000     0.00628009 
C145     C      0.992000000000     0.475430000000     0.998870000000     0.0153024  
C146     C      0.975310000000     0.502850000000     0.000710000000    -0.0680868  
C147     C      0.980310000000     0.561900000000     0.005290000000    -0.0157595  
C148     C      0.040740000000     0.502560000000     0.002130000000    -0.0628932  
C149     C      0.992220000000     0.530110000000     0.003270000000     0.0151911  
C150     C      0.024040000000     0.530010000000     0.003900000000     0.00622699 
C151     C      0.032670000000     0.665520000000     0.842050000000    -0.0147658  
C152     C      0.976930000000     0.667600000000     0.664850000000    -0.0157593  
C153     C      0.032700000000     0.665700000000     0.665590000000    -0.014726   
C154     C      0.020480000000     0.665750000000     0.712910000000     0.00658984 
C155     C      0.988680000000     0.666870000000     0.712730000000     0.0146706  
C156     C      0.971840000000     0.667490000000     0.753790000000    -0.0674269  
C157     C      0.976900000000     0.667600000000     0.842740000000    -0.0157597  
C158     C      0.037240000000     0.665130000000     0.753820000000    -0.0632634  
C159     C      0.988660000000     0.666850000000     0.794870000000     0.0146575  
C160     C      0.020460000000     0.665680000000     0.794720000000     0.00661302 
C161     C      0.038530000000     0.674260000000     0.164730000000    -0.0152067  
C162     C      0.982900000000     0.671180000000     0.342110000000    -0.0157306  
C163     C      0.038600000000     0.674350000000     0.342830000000    -0.0151712  
C164     C      0.026830000000     0.673950000000     0.294900000000     0.00569653 
C165     C      0.995060000000     0.672180000000     0.294750000000     0.0153392  
C166     C      0.978300000000     0.671250000000     0.253830000000    -0.068378   
C167     C      0.982820000000     0.671260000000     0.165540000000    -0.015563   
C168     C      0.043620000000     0.674840000000     0.253770000000    -0.0623738  
C169     C      0.995020000000     0.672200000000     0.212890000000     0.0152993  
C170     C      0.026790000000     0.673920000000     0.212680000000     0.00572495 
C171     C      0.029110000000     0.777390000000     0.973820000000    -0.0155204  
C172     C      0.982140000000     0.895070000000     0.019320000000    -0.0165102  
C173     C      0.019690000000     0.895630000000     0.957600000000    -0.0158275  
C174     C      0.013100000000     0.863640000000     0.972570000000     0.00658059 
C175     C      0.990140000000     0.863500000000     0.005500000000     0.0161262  
C176     C      0.977920000000     0.836160000000     0.022670000000    -0.0687593  
C177     C      0.982210000000     0.777180000000     0.019060000000    -0.0163093  
C178     C      0.027910000000     0.836380000000     0.959550000000    -0.0626115  
C179     C      0.991280000000     0.808900000000     0.007270000000     0.016041   
C180     C      0.016830000000     0.809020000000     0.978930000000     0.00631047 
C181     C      0.440680000000     0.974910000000     0.515510000000    -0.0157724  
C182     C      0.557410000000     0.030970000000     0.486080000000    -0.0147105  
C183     C      0.557700000000     0.975240000000     0.487030000000    -0.0159008  
C184     C      0.526160000000     0.987130000000     0.494120000000     0.015546   
C185     C      0.526000000000     0.018900000000     0.493580000000     0.0058138  
C186     C      0.498890000000     0.035620000000     0.500230000000    -0.0625309  
C187     C      0.440400000000     0.030640000000     0.514590000000    -0.0148897  
C188     C      0.499200000000     0.970270000000     0.501330000000    -0.0680961  
C189     C      0.471930000000     0.018760000000     0.507420000000     0.005882   
C190     C      0.472090000000     0.986980000000     0.507960000000     0.0154875  
C191     C      0.105560000000     0.020920000000     0.541780000000    -0.0152347  
C192     C      0.225490000000     0.978040000000     0.497660000000    -0.0162046  
C193     C      0.224240000000     0.024610000000     0.543500000000    -0.0153226  
C194     C      0.192660000000     0.014210000000     0.532470000000     0.00615477 
C195     C      0.193490000000     0.988890000000     0.503750000000     0.0159362  
C196     C      0.166700000000     0.977120000000     0.483780000000    -0.0684739  
C197     C      0.107630000000     0.983910000000     0.479460000000    -0.0163488  
C198     C      0.164750000000     0.026540000000     0.547730000000    -0.0628427  
C199     C      0.138900000000     0.990770000000     0.496750000000     0.0159225  
C200     C      0.137840000000     0.013410000000     0.530090000000     0.00594362 
C201     C      0.443780000000     0.030600000000     0.012630000000    -0.0150896  
C202     C      0.561570000000     0.975320000000     0.989620000000    -0.0156583  
C203     C      0.561510000000     0.031050000000     0.990530000000    -0.0149769  
C204     C      0.529870000000     0.018960000000     0.996110000000     0.00602414 
C205     C      0.529920000000     0.987190000000     0.995580000000     0.0154856  
C206     C      0.502750000000     0.970290000000     0.000570000000    -0.0681273  
C207     C      0.443850000000     0.974870000000     0.011710000000    -0.0160402  
C208     C      0.502610000000     0.035630000000     0.001660000000    -0.0626893  
C209     C      0.475490000000     0.986960000000     0.006130000000     0.0154719  
C210     C      0.475440000000     0.018740000000     0.006660000000     0.00589187 
C211     C      0.334170000000     0.027250000000     0.683830000000    -0.0167213  
C212     C      0.331130000000     0.972100000000     0.861460000000    -0.0160052  
C213     C      0.333590000000     0.027770000000     0.860400000000    -0.0146976  
C214     C      0.333010000000     0.015460000000     0.813110000000     0.00610168 
C215     C      0.331630000000     0.983710000000     0.813480000000     0.0150071  
C216     C      0.331120000000     0.966780000000     0.772480000000    -0.0678233  
C217     C      0.331820000000     0.971570000000     0.683430000000    -0.0181449  
C218     C      0.333920000000     0.032070000000     0.772080000000    -0.0631251  
C219     C      0.332020000000     0.983460000000     0.731280000000     0.015323   
C220     C      0.333370000000     0.015210000000     0.731260000000     0.00636541 
C221     C      0.332020000000     0.032970000000     0.361210000000    -0.0149431  
C222     C      0.340020000000     0.977960000000     0.183900000000    -0.0155479  
C223     C      0.337190000000     0.033620000000     0.183440000000    -0.0151036  
C224     C      0.336680000000     0.021710000000     0.231250000000     0.00548104 
C225     C      0.338310000000     0.989970000000     0.231270000000     0.0157139  
C226     C      0.337850000000     0.973080000000     0.272060000000    -0.0686013  
C227     C      0.334840000000     0.977310000000     0.360260000000    -0.0156003  
C228     C      0.334510000000     0.038350000000     0.272360000000    -0.0622363  
C229     C      0.335710000000     0.989660000000     0.313010000000     0.0157449  
C230     C      0.334090000000     0.021400000000     0.313320000000     0.00539825 
C231     C      0.227610000000     0.981320000000     0.050710000000    -0.016468   
C232     C      0.110900000000     0.022950000000     0.989700000000    -0.0151656  
C233     C      0.108410000000     0.986880000000     0.053200000000    -0.0166595  
C234     C      0.140900000000     0.994240000000     0.041530000000     0.015535   
C235     C      0.141970000000     0.016470000000     0.007580000000     0.0065168  
C236     C      0.169730000000     0.029450000000     0.993240000000    -0.0630828  
C237     C      0.228550000000     0.027520000000     0.004040000000    -0.0154711  
C238     C      0.167940000000     0.980720000000     0.058330000000    -0.0677342  
C239     C      0.196580000000     0.017500000000     0.012500000000     0.00667588 
C240     C      0.195880000000     0.992450000000     0.041740000000     0.0153446  
H1       H      0.048960000000     0.309470000000     0.655590000000     0.0388387  
H2       H      0.965170000000     0.311620000000     0.654710000000     0.0391209  
H3       H      0.949550000000     0.331900000000     0.750390000000     0.0418224  
H4       H      0.064650000000     0.330250000000     0.751760000000     0.0402912  
H5       H      0.048450000000     0.310510000000     0.847470000000     0.0383314  
H6       H      0.964430000000     0.352180000000     0.845720000000     0.0394364  
H7       H      0.050350000000     0.350870000000     0.656400000000     0.0386561  
H8       H      0.965990000000     0.353020000000     0.655840000000     0.0403634  
H9       H      0.964640000000     0.310750000000     0.846610000000     0.0397054  
H10      H      0.048830000000     0.351920000000     0.846270000000     0.0395799  
H11      H      0.049060000000     0.359920000000     0.347070000000     0.0391681  
H12      H      0.965190000000     0.360640000000     0.346830000000     0.0392694  
H13      H      0.949690000000     0.340880000000     0.250690000000     0.0418642  
H14      H      0.064810000000     0.339000000000     0.251440000000     0.0403904  
H15      H      0.049950000000     0.359630000000     0.155450000000     0.0384338  
H16      H      0.964830000000     0.320260000000     0.155840000000     0.0395273  
H17      H      0.048970000000     0.318500000000     0.346140000000     0.0387459  
H18      H      0.964620000000     0.319220000000     0.345690000000     0.039915   
H19      H      0.966150000000     0.361660000000     0.155220000000     0.039948   
H20      H      0.049200000000     0.318200000000     0.156280000000     0.0390797  
H21      H      0.977900000000     0.231960000000     0.551870000000     0.0373752  
H22      H      0.050380000000     0.229080000000     0.488100000000     0.040634   
H23      H      0.045550000000     0.167680000000     0.434960000000     0.0410046  
H24      H      0.955390000000     0.169860000000     0.541870000000     0.0423616  
H25      H      0.983110000000     0.106520000000     0.552840000000     0.0438135  
H26      H      0.010360000000     0.105260000000     0.419470000000     0.0400541  
H27      H      0.957450000000     0.234320000000     0.498030000000     0.0420843  
H28      H      0.030000000000     0.233930000000     0.434600000000     0.0361722  
H29      H      0.041420000000     0.102940000000     0.460470000000     0.0354821  
H30      H      0.953250000000     0.106100000000     0.509850000000     0.0363038  
H31      H      0.032210000000     0.231490000000     0.950070000000     0.0360798  
H32      H      0.960220000000     0.231830000000     0.015800000000     0.0415989  
H33      H      0.962310000000     0.169990000000     0.067520000000     0.0425384  
H34      H      0.050910000000     0.168130000000     0.957680000000     0.0405942  
H35      H      0.018870000000     0.106680000000     0.946040000000     0.0418966  
H36      H      0.993970000000     0.105490000000     0.080400000000     0.0413626  
H37      H      0.053160000000     0.232280000000     0.003600000000     0.0409786  
H38      H      0.981580000000     0.235190000000     0.068710000000     0.0371722  
H39      H      0.962220000000     0.105540000000     0.040420000000     0.0360516  
H40      H      0.049550000000     0.103910000000     0.987560000000     0.0350596  
H41      H      0.892430000000     0.009280000000     0.562160000000     0.0411864  
H42      H      0.897410000000     0.961590000000     0.459080000000     0.0359846  
H43      H      0.834230000000     0.963930000000     0.425240000000     0.0423929  
H44      H      0.830270000000     0.043180000000     0.549800000000     0.0408041  
H45      H      0.765780000000     0.025530000000     0.544740000000     0.0358138  
H46      H      0.770100000000     0.983640000000     0.418720000000     0.0368188  
H47      H      0.895710000000     0.043700000000     0.527960000000     0.0352297  
H48      H      0.897910000000     0.995960000000     0.424430000000     0.0427372  
H49      H      0.769270000000     0.958710000000     0.468240000000     0.0420544  
H50      H      0.769400000000     0.050120000000     0.495110000000     0.0409637  
H51      H      0.642710000000     0.040840000000     0.825290000000     0.0391179  
H52      H      0.646970000000     0.957200000000     0.825920000000     0.0394653  
H53      H      0.668530000000     0.942610000000     0.729580000000     0.0421414  
H54      H      0.662460000000     0.057440000000     0.730270000000     0.0401878  
H55      H      0.642600000000     0.041410000000     0.635200000000     0.0392025  
H56      H      0.688580000000     0.959780000000     0.633860000000     0.0398291  
H57      H      0.684120000000     0.043190000000     0.824690000000     0.0390337  
H58      H      0.688400000000     0.959040000000     0.825400000000     0.0398787  
H59      H      0.647170000000     0.957520000000     0.633550000000     0.0394186  
H60      H      0.684020000000     0.043650000000     0.635480000000     0.0385631  
H61      H      0.684880000000     0.963600000000     0.326220000000     0.0396621  
H62      H      0.688780000000     0.047780000000     0.327040000000     0.038867   
H63      H      0.671920000000     0.064040000000     0.229560000000     0.0404183  
H64      H      0.666690000000     0.949170000000     0.230160000000     0.0417037  
H65      H      0.691100000000     0.963310000000     0.136400000000     0.0390865  
H66      H      0.653480000000     0.049060000000     0.132650000000     0.0388011  
H67      H      0.643510000000     0.965800000000     0.323310000000     0.0400723  
H68      H      0.647390000000     0.049450000000     0.324130000000     0.0385088  
H69      H      0.694860000000     0.046720000000     0.134830000000     0.038569   
H70      H      0.649670000000     0.964650000000     0.134270000000     0.0403596  
H71      H      0.771640000000     0.977330000000     0.035260000000     0.0373344  
H72      H      0.774330000000     0.047770000000     0.966000000000     0.0409326  
H73      H      0.838100000000     0.043770000000     0.919230000000     0.0409021  
H74      H      0.835010000000     0.957910000000     0.033570000000     0.0424585  
H75      H      0.896640000000     0.989410000000     0.048180000000     0.0434255  
H76      H      0.902520000000     0.010940000000     0.912820000000     0.0405199  
H77      H      0.772510000000     0.955290000000     0.982760000000     0.0419387  
H78      H      0.772600000000     0.025240000000     0.914050000000     0.0359544  
H79      H      0.901820000000     0.043550000000     0.951100000000     0.0356577  
H80      H      0.900150000000     0.957680000000     0.008690000000     0.0362165  
H81      H      0.050930000000     0.438900000000     0.537400000000     0.0387394  
H82      H      0.967200000000     0.439470000000     0.536010000000     0.0395732  
H83      H      0.952040000000     0.502680000000     0.502580000000     0.0418673  
H84      H      0.067160000000     0.502500000000     0.504040000000     0.0403784  
H85      H      0.051610000000     0.566970000000     0.532180000000     0.0388244  
H86      H      0.967750000000     0.565760000000     0.469470000000     0.0395796  
H87      H      0.051760000000     0.438160000000     0.475430000000     0.0388845  
H88      H      0.967290000000     0.438790000000     0.474030000000     0.040199   
H89      H      0.967210000000     0.566600000000     0.531440000000     0.0402567  
H90      H      0.051550000000     0.566060000000     0.470210000000     0.0388202  
H91      H      0.039530000000     0.902470000000     0.547010000000     0.0356649  
H92      H      0.985470000000     0.898860000000     0.449150000000     0.044104   
H93      H      0.957630000000     0.835230000000     0.457060000000     0.042454   
H94      H      0.043140000000     0.837630000000     0.572180000000     0.0412026  
H95      H      0.050520000000     0.776340000000     0.518950000000     0.0406788  
H96      H      0.958170000000     0.770780000000     0.500900000000     0.0422633  
H97      H      0.006790000000     0.899670000000     0.584910000000     0.0407095  
H98      H      0.953750000000     0.898840000000     0.489050000000     0.0365806  
H99      H      0.980760000000     0.773180000000     0.449010000000     0.0372012  
H100     H      0.028190000000     0.771370000000     0.570660000000     0.036167   
H101     H      0.049670000000     0.438030000000     0.028760000000     0.0392444  
H102     H      0.965040000000     0.438490000000     0.026590000000     0.039761   
H103     H      0.950460000000     0.502970000000     0.000220000000     0.0418555  
H104     H      0.065580000000     0.502450000000     0.002710000000     0.0404008  
H105     H      0.049790000000     0.565390000000     0.038020000000     0.038716   
H106     H      0.966170000000     0.567350000000     0.974600000000     0.0402657  
H107     H      0.049870000000     0.439590000000     0.966810000000     0.038567   
H108     H      0.966310000000     0.440090000000     0.964660000000     0.0396098  
H109     H      0.966140000000     0.565540000000     0.036540000000     0.0395114  
H110     H      0.050730000000     0.567160000000     0.976100000000     0.0391341  
H111     H      0.046100000000     0.644520000000     0.658610000000     0.0391174  
H112     H      0.962240000000     0.647360000000     0.657490000000     0.0394054  
H113     H      0.947020000000     0.668510000000     0.753780000000     0.0420714  
H114     H      0.062080000000     0.664370000000     0.753830000000     0.040314   
H115     H      0.045970000000     0.644270000000     0.848970000000     0.039173   
H116     H      0.963470000000     0.688810000000     0.849370000000     0.0398902  
H117     H      0.047690000000     0.685920000000     0.659430000000     0.038996   
H118     H      0.963430000000     0.688770000000     0.658220000000     0.0398243  
H119     H      0.962140000000     0.647400000000     0.850060000000     0.0393467  
H120     H      0.047730000000     0.685660000000     0.848290000000     0.0389587  
H121     H      0.051400000000     0.695840000000     0.350110000000     0.038705   
H122     H      0.967630000000     0.691070000000     0.349020000000     0.0392889  
H123     H      0.953490000000     0.669770000000     0.253860000000     0.0416566  
H124     H      0.068440000000     0.676090000000     0.253750000000     0.0404066  
H125     H      0.051400000000     0.695710000000     0.157400000000     0.0386811  
H126     H      0.969640000000     0.649830000000     0.159310000000     0.0401498  
H127     H      0.053970000000     0.654510000000     0.349510000000     0.0386654  
H128     H      0.969810000000     0.649710000000     0.348340000000     0.0402668  
H129     H      0.967610000000     0.691210000000     0.158680000000     0.039287   
H130     H      0.053820000000     0.654360000000     0.158050000000     0.0387416  
H131     H      0.012570000000     0.899230000000     0.921390000000     0.0406234  
H132     H      0.957280000000     0.899720000000     0.014330000000     0.0361025  
H133     H      0.959210000000     0.836120000000     0.047120000000     0.0422003  
H134     H      0.047150000000     0.836470000000     0.936060000000     0.0411859  
H135     H      0.030690000000     0.770560000000     0.937160000000     0.0362976  
H136     H      0.981140000000     0.773740000000     0.056820000000     0.0372778  
H137     H      0.044460000000     0.901330000000     0.961000000000     0.0359615  
H138     H      0.988020000000     0.899140000000     0.055940000000     0.0434241  
H139     H      0.959470000000     0.771460000000     0.004040000000     0.0420901  
H140     H      0.052220000000     0.775340000000     0.989680000000     0.0406988  
H141     H      0.559150000000     0.961320000000     0.455180000000     0.0393171  
H142     H      0.558730000000     0.044430000000     0.453770000000     0.0386042  
H143     H      0.498770000000     0.060440000000     0.499820000000     0.0402878  
H144     H      0.499320000000     0.945450000000     0.501760000000     0.041935   
H145     H      0.433250000000     0.960100000000     0.486530000000     0.0401076  
H146     H      0.438970000000     0.044570000000     0.546440000000     0.0383789  
H147     H      0.565250000000     0.960930000000     0.516500000000     0.0403724  
H148     H      0.564810000000     0.045810000000     0.515070000000     0.0392396  
H149     H      0.432810000000     0.044950000000     0.485130000000     0.03943    
H150     H      0.439390000000     0.961440000000     0.547810000000     0.0395697  
H151     H      0.228150000000     0.025520000000     0.581150000000     0.035875   
H152     H      0.228700000000     0.955040000000     0.513360000000     0.04157    
H153     H      0.167450000000     0.958390000000     0.459440000000     0.0425392  
H154     H      0.164000000000     0.045340000000     0.571950000000     0.0406299  
H155     H      0.100180000000     0.014200000000     0.577670000000     0.040565   
H156     H      0.105240000000     0.990760000000     0.442900000000     0.0420987  
H157     H      0.228790000000     0.047670000000     0.528760000000     0.0410575  
H158     H      0.231900000000     0.976800000000     0.460790000000     0.0374112  
H159     H      0.102070000000     0.959140000000     0.482700000000     0.0367269  
H160     H      0.100790000000     0.045800000000     0.537560000000     0.035867   
H161     H      0.568430000000     0.045190000000     0.020520000000     0.0390553  
H162     H      0.568520000000     0.960760000000     0.019140000000     0.0398193  
H163     H      0.502810000000     0.945470000000     0.000160000000     0.0419225  
H164     H      0.502550000000     0.060450000000     0.002080000000     0.0403099  
H165     H      0.441730000000     0.044280000000     0.044640000000     0.0389262  
H166     H      0.436940000000     0.960730000000     0.981710000000     0.0401607  
H167     H      0.563530000000     0.045200000000     0.958970000000     0.0385628  
H168     H      0.563630000000     0.961630000000     0.957610000000     0.0398005  
H169     H      0.441840000000     0.960720000000     0.043270000000     0.0394691  
H170     H      0.436840000000     0.045160000000     0.983110000000     0.039233   
H171     H      0.313430000000     0.042750000000     0.866990000000     0.0383907  
H172     H      0.309720000000     0.959100000000     0.868590000000     0.0397051  
H173     H      0.330110000000     0.941990000000     0.772640000000     0.0421139  
H174     H      0.335050000000     0.056870000000     0.771920000000     0.0401757  
H175     H      0.314100000000     0.042310000000     0.676920000000     0.0391373  
H176     H      0.352000000000     0.956640000000     0.676800000000     0.039909   
H177     H      0.354870000000     0.041180000000     0.866790000000     0.0393789  
H178     H      0.351140000000     0.957000000000     0.868460000000     0.0395689  
H179     H      0.310570000000     0.958320000000     0.676250000000     0.0401271  
H180     H      0.355540000000     0.040510000000     0.677440000000     0.0395627  
H181     H      0.357490000000     0.048520000000     0.177520000000     0.0384998  
H182     H      0.361740000000     0.965120000000     0.178230000000     0.0398964  
H183     H      0.339040000000     0.948290000000     0.271940000000     0.0418236  
H184     H      0.333170000000     0.063130000000     0.272480000000     0.0404023  
H185     H      0.351700000000     0.048180000000     0.369620000000     0.0386982  
H186     H      0.314570000000     0.962220000000     0.365380000000     0.0392889  
H187     H      0.316070000000     0.046910000000     0.175550000000     0.0389837  
H188     H      0.320360000000     0.962510000000     0.176320000000     0.0398802  
H189     H      0.355970000000     0.964020000000     0.368140000000     0.0402306  
H190     H      0.310330000000     0.045850000000     0.366850000000     0.038627   
H191     H      0.102750000000     0.994570000000     0.088550000000     0.0413357  
H192     H      0.105190000000     0.047720000000     0.992510000000     0.0349945  
H193     H      0.170400000000     0.047660000000     0.968030000000     0.0405105  
H194     H      0.167280000000     0.961930000000     0.082580000000     0.0424996  
H195     H      0.232710000000     0.980630000000     0.088050000000     0.0370914  
H196     H      0.233830000000     0.028440000000     0.966750000000     0.03632    
H197     H      0.103670000000     0.961920000000     0.050360000000     0.0360091  
H198     H      0.108920000000     0.015930000000     0.953160000000     0.0418736  
H199     H      0.232770000000     0.050510000000     0.019220000000     0.0410415  
H200     H      0.231140000000     0.958040000000     0.036150000000     0.0416537  
N1       N      0.006490000000     0.331830000000     0.867880000000    -0.182068   
N2       N      0.007730000000     0.331710000000     0.634270000000    -0.18198    
N3       N      0.007580000000     0.339530000000     0.134390000000    -0.182414   
N4       N      0.006910000000     0.339130000000     0.367740000000    -0.182432   
N5       N      0.997070000000     0.090930000000     0.486440000000    -0.179902   
N6       N      0.004820000000     0.246500000000     0.494680000000    -0.181941   
N7       N      0.005310000000     0.091230000000     0.012580000000    -0.182456   
N8       N      0.006560000000     0.246870000000     0.008080000000    -0.182399   
N9       N      0.754450000000     0.004600000000     0.480650000000    -0.182346   
N10      N      0.910030000000     0.002490000000     0.494670000000    -0.182481   
N11      N      0.665640000000     0.000790000000     0.613180000000    -0.182322   
N12      N      0.665890000000     0.000170000000     0.846670000000    -0.182167   
N13      N      0.672350000000     0.005730000000     0.113160000000    -0.182102   
N14      N      0.665690000000     0.006570000000     0.346540000000    -0.182076   
N15      N      0.914470000000     0.000950000000     0.982110000000    -0.181728   
N16      N      0.758530000000     0.001820000000     0.974900000000    -0.181882   
N17      N      0.009460000000     0.580630000000     0.500750000000    -0.181846   
N18      N      0.009180000000     0.424540000000     0.505620000000    -0.182006   
N19      N      0.005360000000     0.758740000000     0.508520000000    -0.181896   
N20      N      0.996280000000     0.914230000000     0.516960000000    -0.179561   
N21      N      0.008240000000     0.580620000000     0.006670000000    -0.18221    
N22      N      0.007630000000     0.424790000000     0.996560000000    -0.182236   
N23      N      0.004980000000     0.666870000000     0.870490000000    -0.182365   
N24      N      0.005020000000     0.666990000000     0.637120000000    -0.182335   
N25      N      0.010470000000     0.672460000000     0.136990000000    -0.182082   
N26      N      0.010580000000     0.672460000000     0.370610000000    -0.181988   
N27      N      0.006570000000     0.758620000000     0.998480000000    -0.182126   
N28      N      0.000830000000     0.914090000000     0.988750000000    -0.181996   
N29      N      0.421870000000     0.002710000000     0.518580000000    -0.182212   
N30      N      0.576230000000     0.003180000000     0.483080000000    -0.182234   
N31      N      0.087880000000     0.002590000000     0.508990000000    -0.182515   
N32      N      0.243600000000     0.001260000000     0.521870000000    -0.182397   
N33      N      0.425090000000     0.002680000000     0.015170000000    -0.181966   
N34      N      0.580270000000     0.003230000000     0.987070000000    -0.181998   
N35      N      0.333130000000     0.999530000000     0.655490000000    -0.177883   
N36      N      0.332570000000     0.000200000000     0.889070000000    -0.182082   
N37      N      0.332740000000     0.004860000000     0.388830000000    -0.182262   
N38      N      0.338950000000     0.005670000000     0.155540000000    -0.182224   
N39      N      0.246850000000     0.004020000000     0.027210000000    -0.182038   
N40      N      0.090960000000     0.004430000000     0.019150000000    -0.182149   
O1       O      0.292600000000     0.028810000000     0.020940000000    -0.558122   
O2       O      0.379630000000     0.028420000000     0.019770000000    -0.557395   
O3       O      0.335460000000     0.027060000000     0.955920000000    -0.557935   
O4       O      0.336710000000     0.030130000000     0.086130000000    -0.554619   
O5       O      0.338840000000     0.978930000000     0.088510000000    -0.555994   
O6       O      0.332760000000     0.975890000000     0.958670000000    -0.551608   
O7       O      0.379340000000     0.977150000000     0.019130000000    -0.551745   
O8       O      0.292250000000     0.977850000000     0.029310000000    -0.551146   
O9       O      0.288930000000     0.027200000000     0.526630000000    -0.555552   
O10      O      0.376050000000     0.028060000000     0.521170000000    -0.555842   
O11      O      0.331040000000     0.029180000000     0.458340000000    -0.554469   
O12      O      0.334000000000     0.026220000000     0.588410000000    -0.557563   
O13      O      0.332040000000     0.975010000000     0.586020000000    -0.551613   
O14      O      0.333810000000     0.978010000000     0.455800000000    -0.55627    
O15      O      0.376450000000     0.976790000000     0.521840000000    -0.555469   
O16      O      0.289400000000     0.976230000000     0.518440000000    -0.555715   
O17      O      0.032860000000     0.713360000000     0.997290000000    -0.553865   
O18      O      0.033730000000     0.626390000000     0.006010000000    -0.554306   
O19      O      0.031830000000     0.667280000000     0.937450000000    -0.557538   
O20      O      0.034880000000     0.672500000000     0.067410000000    -0.553146   
O21      O      0.983660000000     0.669750000000     0.070060000000    -0.557438   
O22      O      0.980560000000     0.669200000000     0.939890000000    -0.554045   
O23      O      0.982390000000     0.626040000000     0.005470000000    -0.55731    
O24      O      0.981830000000     0.712930000000     0.005520000000    -0.557738   
O25      O      0.032320000000     0.713830000000     0.510280000000    -0.55201    
O26      O      0.034440000000     0.626760000000     0.501770000000    -0.552546   
O27      O      0.034970000000     0.672850000000     0.440230000000    -0.552382   
O28      O      0.031920000000     0.667720000000     0.570210000000    -0.557105   
O29      O      0.980630000000     0.668980000000     0.567670000000    -0.554168   
O30      O      0.983790000000     0.669460000000     0.437520000000    -0.5578     
O31      O      0.983110000000     0.625770000000     0.502120000000    -0.556988   
O32      O      0.981320000000     0.712650000000     0.501900000000    -0.557613   
O33      O      0.712750000000     0.977060000000     0.981220000000    -0.55648    
O34      O      0.625720000000     0.977480000000     0.982470000000    -0.555883   
O35      O      0.668590000000     0.975730000000     0.916070000000    -0.552994   
O36      O      0.669890000000     0.978850000000     0.046280000000    -0.556802   
O37      O      0.672580000000     0.030010000000     0.043530000000    -0.553137   
O38      O      0.666490000000     0.026930000000     0.913680000000    -0.557368   
O39      O      0.626030000000     0.028750000000     0.983070000000    -0.553283   
O40      O      0.713120000000     0.028020000000     0.972860000000    -0.552125   
O41      O      0.709160000000     0.978700000000     0.475200000000    -0.554225   
O42      O      0.622050000000     0.977820000000     0.480710000000    -0.554318   
O43      O      0.664130000000     0.979790000000     0.413500000000    -0.556649   
O44      O      0.667090000000     0.976580000000     0.543560000000    -0.552731   
O45      O      0.664080000000     0.027730000000     0.546330000000    -0.557821   
O46      O      0.666340000000     0.030980000000     0.416130000000    -0.553565   
O47      O      0.621660000000     0.029090000000     0.479960000000    -0.557069   
O48      O      0.708680000000     0.029620000000     0.484180000000    -0.557217   
O49      O      0.049490000000     0.005620000000     0.972160000000    -0.558479   
O50      O      0.963190000000     0.006220000000     0.953720000000    -0.549583   
O51      O      0.007270000000     0.048300000000     0.968910000000    -0.559511   
O52      O      0.007290000000     0.961660000000     0.957090000000    -0.550536   
O53      O      0.998220000000     0.957060000000     0.032310000000    -0.560083   
O54      O      0.998210000000     0.043720000000     0.044140000000    -0.55409    
O55      O      0.955950000000     0.999760000000     0.029070000000    -0.558926   
O56      O      0.042240000000     0.999160000000     0.047520000000    -0.553062   
O57      O      0.043690000000     0.996380000000     0.468200000000    -0.554346   
O58      O      0.956870000000     0.000960000000     0.460050000000    -0.55693    
O59      O      0.003420000000     0.042760000000     0.456660000000    -0.55514    
O60      O      0.996890000000     0.956440000000     0.471460000000    -0.557596   
O61      O      0.000340000000     0.962420000000     0.547470000000    -0.553392   
O62      O      0.994590000000     0.048690000000     0.531700000000    -0.559713   
O63      O      0.954120000000     0.004030000000     0.536590000000    -0.556456   
O64      O      0.041030000000     0.008920000000     0.542450000000    -0.557965   
O65      O      0.981050000000     0.292520000000     0.007270000000    -0.553827   
O66      O      0.981660000000     0.379350000000     0.997360000000    -0.554575   
O67      O      0.981000000000     0.332980000000     0.936530000000    -0.552312   
O68      O      0.981690000000     0.338880000000     0.066530000000    -0.556046   
O69      O      0.032970000000     0.336570000000     0.065890000000    -0.556029   
O70      O      0.032300000000     0.334550000000     0.935710000000    -0.558203   
O71      O      0.032980000000     0.379050000000     0.999230000000    -0.557252   
O72      O      0.032230000000     0.292090000000     0.001330000000    -0.558143   
O73      O      0.980730000000     0.292610000000     0.500870000000    -0.557271   
O74      O      0.982740000000     0.379490000000     0.502850000000    -0.55728    
O75      O      0.981430000000     0.337020000000     0.436240000000    -0.555187   
O76      O      0.982020000000     0.335070000000     0.566430000000    -0.557194   
O77      O      0.033260000000     0.332040000000     0.565630000000    -0.55296    
O78      O      0.032750000000     0.337670000000     0.435600000000    -0.556651   
O79      O      0.034040000000     0.378370000000     0.504560000000    -0.552895   
O80      O      0.031900000000     0.291350000000     0.495130000000    -0.552214   
V1       V      0.336120000000     0.030670000000     0.020710000000     1.39446    
V2       V      0.335780000000     0.975370000000     0.023930000000     1.38785    
V3       V      0.332480000000     0.029740000000     0.523690000000     1.38887    
V4       V      0.332930000000     0.974440000000     0.520580000000     1.39623    
V5       V      0.035420000000     0.669910000000     0.002080000000     1.38404    
V6       V      0.980050000000     0.669470000000     0.005280000000     1.40203    
V7       V      0.035510000000     0.670340000000     0.505590000000     1.38002    
V8       V      0.980160000000     0.669170000000     0.502270000000     1.40318    
V9       V      0.669230000000     0.975220000000     0.981490000000     1.39996    
V10      V      0.669580000000     0.030510000000     0.978260000000     1.38221    
V11      V      0.665620000000     0.976140000000     0.478190000000     1.39436    
V12      V      0.665170000000     0.031430000000     0.481590000000     1.39123    
V13      V      0.006940000000     0.005470000000     0.959860000000     1.38128    
V14      V      0.998510000000     0.999900000000     0.041370000000     1.40711    
V15      V      0.000410000000     0.999040000000     0.460890000000     1.39072    
V16      V      0.997480000000     0.006110000000     0.542760000000     1.39365    
V17      V      0.979270000000     0.335940000000     0.001790000000     1.39218    
V18      V      0.034690000000     0.335550000000     0.000590000000     1.39452    
V19      V      0.979680000000     0.336100000000     0.501530000000     1.40325    
V20      V      0.035080000000     0.334800000000     0.500360000000     1.38026    


