data_structure

_audit_creation_method RASPA-1.0
_audit_creation_date 2023-5-23
_audit_author_name 'Poobodin Mano'

_cell_length_a    29.1587
_cell_length_b    29.1547
_cell_length_c    58.2763
_cell_angle_alpha 90
_cell_angle_beta  90
_cell_angle_gamma 90
_cell_volume      49541.4

_symmetry_cell_setting          triclinic
_symmetry_space_group_name_Hall 'P 1'
_symmetry_space_group_name_H-M  'P 1'
_symmetry_Int_Tables_number     1

_symmetry_equiv_pos_as_xyz 'x,y,z'

loop_
_atom_site_label
_atom_site_type_symbol
_atom_site_fract_x
_atom_site_fract_y
_atom_site_fract_z
_atom_site_charge
C1       C      0.002020000000     0.914470000000     0.126780000000     0.476384   
C2       C      0.000720000000     0.087930000000     0.126810000000     0.476402   
C3       C      0.001330000000     0.001170000000     0.170130000000     0.476818   
C4       C      0.001410000000     0.001240000000     0.083380000000     0.476409   
C5       C      0.000680000000     0.587930000000     0.126890000000     0.476471   
C6       C      0.002050000000     0.414470000000     0.126860000000     0.476511   
C7       C      0.001350000000     0.501170000000     0.170210000000     0.477171   
C8       C      0.001390000000     0.501230000000     0.083460000000     0.476198   
C9       C      0.501350000000     0.914430000000     0.126760000000     0.476778   
C10      C      0.500060000000     0.087890000000     0.126750000000     0.476777   
C11      C      0.500700000000     0.001150000000     0.083340000000     0.476713   
C12      C      0.500720000000     0.001180000000     0.170090000000     0.477144   
C13      C      0.500680000000     0.501170000000     0.083420000000     0.47661    
C14      C      0.500750000000     0.501160000000     0.170180000000     0.477654   
C15      C      0.501390000000     0.414430000000     0.126830000000     0.476602   
C16      C      0.500020000000     0.587890000000     0.126840000000     0.477026   
C17      C      0.001600000000     0.001770000000     0.919980000000     0.475846   
C18      C      0.001690000000     0.001770000000     0.833230000000     0.476595   
C19      C      0.998410000000     0.088460000000     0.876590000000     0.476806   
C20      C      0.004870000000     0.915080000000     0.876590000000     0.475895   
C21      C      0.001580000000     0.501740000000     0.920060000000     0.475962   
C22      C      0.001740000000     0.501800000000     0.833310000000     0.477034   
C23      C      0.004920000000     0.588460000000     0.876680000000     0.476136   
C24      C      0.998400000000     0.415080000000     0.876660000000     0.476689   
C25      C      0.504200000000     0.914920000000     0.876520000000     0.4764     
C26      C      0.497730000000     0.088300000000     0.876580000000     0.476437   
C27      C      0.500870000000     0.001540000000     0.919940000000     0.476391   
C28      C      0.501060000000     0.001670000000     0.833190000000     0.477224   
C29      C      0.504240000000     0.588300000000     0.876630000000     0.476306   
C30      C      0.497710000000     0.414920000000     0.876640000000     0.476257   
C31      C      0.500860000000     0.501620000000     0.920030000000     0.476468   
C32      C      0.501100000000     0.501590000000     0.833280000000     0.477535   
C33      C      0.914470000000     0.001860000000     0.376550000000     0.476108   
C34      C      0.087930000000     0.000550000000     0.376570000000     0.476294   
C35      C      0.001200000000     0.001230000000     0.419970000000     0.476215   
C36      C      0.001220000000     0.001180000000     0.333220000000     0.476865   
C37      C      0.914620000000     0.501890000000     0.376640000000     0.476553   
C38      C      0.088080000000     0.500530000000     0.376650000000     0.476754   
C39      C      0.001360000000     0.501160000000     0.333300000000     0.477004   
C40      C      0.001350000000     0.501260000000     0.420060000000     0.47636    
C41      C      0.501090000000     0.001190000000     0.333180000000     0.477108   
C42      C      0.501310000000     0.001230000000     0.419940000000     0.47638    
C43      C      0.587930000000     0.000560000000     0.376470000000     0.476339   
C44      C      0.414470000000     0.001860000000     0.376570000000     0.4762     
C45      C      0.501470000000     0.501260000000     0.420020000000     0.476727   
C46      C      0.501240000000     0.501160000000     0.333270000000     0.477329   
C47      C      0.414620000000     0.501890000000     0.376660000000     0.476677   
C48      C      0.588080000000     0.500530000000     0.376560000000     0.476558   
C49      C      0.001730000000     0.001370000000     0.583370000000     0.475996   
C50      C      0.001880000000     0.001450000000     0.670130000000     0.476591   
C51      C      0.088540000000     0.000770000000     0.626750000000     0.47631    
C52      C      0.915080000000     0.002050000000     0.626820000000     0.476093   
C53      C      0.001860000000     0.501520000000     0.583460000000     0.476699   
C54      C      0.001960000000     0.501690000000     0.670210000000     0.47686    
C55      C      0.915180000000     0.500930000000     0.626890000000     0.476654   
C56      C      0.088640000000     0.502270000000     0.626840000000     0.476636   
C57      C      0.501740000000     0.001440000000     0.670090000000     0.476904   
C58      C      0.501860000000     0.001370000000     0.583330000000     0.476416   
C59      C      0.588540000000     0.000760000000     0.626780000000     0.476517   
C60      C      0.415080000000     0.002040000000     0.626720000000     0.47634    
C61      C      0.415180000000     0.500920000000     0.626810000000     0.476684   
C62      C      0.588640000000     0.502260000000     0.626860000000     0.476668   
C63      C      0.501850000000     0.501650000000     0.670180000000     0.477618   
C64      C      0.501960000000     0.501520000000     0.583420000000     0.476612   
C65      C      0.840300000000     0.459270000000     0.627220000000    -0.0162537  
C66      C      0.663520000000     0.543930000000     0.627160000000    -0.0163053  
C67      C      0.663140000000     0.460550000000     0.626800000000    -0.0159569  
C68      C      0.710800000000     0.478140000000     0.626990000000     0.0105423  
C69      C      0.711060000000     0.525680000000     0.627080000000     0.0107944  
C70      C      0.752220000000     0.550480000000     0.627020000000    -0.065466   
C71      C      0.840690000000     0.542640000000     0.626790000000    -0.015913   
C72      C      0.751600000000     0.452710000000     0.627060000000    -0.0654744  
C73      C      0.793030000000     0.525050000000     0.626980000000     0.0105274  
C74      C      0.792760000000     0.477500000000     0.627110000000     0.0107908  
C75      C      0.163130000000     0.460560000000     0.626740000000    -0.0159083  
C76      C      0.340690000000     0.542630000000     0.626680000000    -0.01593    
C77      C      0.340300000000     0.459260000000     0.627110000000    -0.0162353  
C78      C      0.292760000000     0.477500000000     0.627010000000     0.0107541  
C79      C      0.293030000000     0.525040000000     0.626880000000     0.010535   
C80      C      0.252230000000     0.550480000000     0.626930000000    -0.0654646  
C81      C      0.163520000000     0.543930000000     0.627100000000    -0.0162379  
C82      C      0.251590000000     0.452710000000     0.626970000000    -0.0654597  
C83      C      0.211060000000     0.525690000000     0.627000000000     0.0107546  
C84      C      0.210790000000     0.478150000000     0.626910000000     0.0105269  
C85      C      0.663410000000     0.959100000000     0.627120000000    -0.0161566  
C86      C      0.840210000000     0.043710000000     0.627130000000    -0.0161249  
C87      C      0.840580000000     0.960340000000     0.626730000000    -0.0158866  
C88      C      0.792920000000     0.977940000000     0.626920000000     0.0109688  
C89      C      0.792660000000     0.025480000000     0.627030000000     0.0103333  
C90      C      0.751510000000     0.050290000000     0.626950000000    -0.0652048  
C91      C      0.663040000000     0.042470000000     0.626690000000    -0.0158231  
C92      C      0.752110000000     0.952520000000     0.626980000000    -0.0656974  
C93      C      0.710700000000     0.024870000000     0.626900000000     0.0100967  
C94      C      0.710960000000     0.977330000000     0.627020000000     0.0111902  
C95      C      0.163410000000     0.959100000000     0.627040000000    -0.0162839  
C96      C      0.340210000000     0.043710000000     0.627000000000    -0.0160659  
C97      C      0.340580000000     0.960330000000     0.626600000000    -0.0159529  
C98      C      0.292920000000     0.977940000000     0.626790000000     0.0110229  
C99      C      0.292670000000     0.025480000000     0.626900000000     0.0102715  
C100     C      0.251510000000     0.050290000000     0.626840000000    -0.0651778  
C101     C      0.163040000000     0.042480000000     0.626600000000    -0.0158424  
C102     C      0.252110000000     0.952520000000     0.626860000000    -0.065786   
C103     C      0.210700000000     0.024870000000     0.626790000000     0.0100697  
C104     C      0.210960000000     0.977330000000     0.626920000000     0.0112506  
C105     C      0.501860000000     0.459630000000     0.457410000000    -0.0160371  
C106     C      0.502180000000     0.543150000000     0.546030000000    -0.0161019  
C107     C      0.501700000000     0.459770000000     0.546070000000    -0.0160506  
C108     C      0.501800000000     0.477650000000     0.522240000000     0.010736   
C109     C      0.501930000000     0.525190000000     0.522220000000     0.0107959  
C110     C      0.501770000000     0.550270000000     0.501700000000    -0.0654328  
C111     C      0.501340000000     0.543010000000     0.457380000000    -0.0161596  
C112     C      0.501790000000     0.452500000000     0.501740000000    -0.0653615  
C113     C      0.501630000000     0.525130000000     0.481210000000     0.0108288  
C114     C      0.501780000000     0.477580000000     0.481220000000     0.0107265  
C115     C      0.503020000000     0.959670000000     0.545970000000    -0.0159912  
C116     C      0.500270000000     0.042930000000     0.457300000000    -0.015914   
C117     C      0.502640000000     0.959590000000     0.457320000000    -0.0160822  
C118     C      0.502240000000     0.977520000000     0.481130000000     0.011247   
C119     C      0.500890000000     0.025040000000     0.481120000000     0.0102711  
C120     C      0.500270000000     0.050160000000     0.501630000000    -0.0650946  
C121     C      0.500650000000     0.043010000000     0.545950000000    -0.015956   
C122     C      0.503050000000     0.952430000000     0.501640000000    -0.0656561  
C123     C      0.501080000000     0.025080000000     0.522140000000     0.010332   
C124     C      0.502430000000     0.977550000000     0.522150000000     0.0111777  
C125     C      0.001160000000     0.543000000000     0.457410000000    -0.0164476  
C126     C      0.001520000000     0.459760000000     0.546100000000    -0.0164757  
C127     C      0.002010000000     0.543140000000     0.546070000000    -0.0164871  
C128     C      0.001740000000     0.525180000000     0.522260000000     0.0108167  
C129     C      0.001610000000     0.477640000000     0.522270000000     0.0108315  
C130     C      0.001600000000     0.452490000000     0.501780000000    -0.065511   
C131     C      0.001680000000     0.459620000000     0.457440000000    -0.0164585  
C132     C      0.001580000000     0.550260000000     0.501740000000    -0.0655     
C133     C      0.001580000000     0.477570000000     0.481260000000     0.0108063  
C134     C      0.001430000000     0.525120000000     0.481240000000     0.010806   
C135     C      0.840130000000     0.460180000000     0.376730000000    -0.0158746  
C136     C      0.662570000000     0.542240000000     0.376630000000    -0.015919   
C137     C      0.662960000000     0.458870000000     0.376250000000    -0.0162546  
C138     C      0.710510000000     0.477110000000     0.376360000000     0.0107783  
C139     C      0.710230000000     0.524660000000     0.376460000000     0.0105332  
C140     C      0.751030000000     0.550090000000     0.376410000000    -0.0654669  
C141     C      0.839740000000     0.543550000000     0.376300000000    -0.0162829  
C142     C      0.751670000000     0.452320000000     0.376450000000    -0.0654991  
C143     C      0.792200000000     0.525300000000     0.376380000000     0.0107824  
C144     C      0.792470000000     0.477760000000     0.376510000000     0.0105309  
C145     C      0.162570000000     0.542240000000     0.376750000000    -0.0159182  
C146     C      0.340130000000     0.460180000000     0.376800000000    -0.0158616  
C147     C      0.339740000000     0.543550000000     0.376370000000    -0.0162457  
C148     C      0.292200000000     0.525300000000     0.376470000000     0.0107544  
C149     C      0.292470000000     0.477760000000     0.376600000000     0.0105242  
C150     C      0.251670000000     0.452320000000     0.376550000000    -0.0655061  
C151     C      0.162970000000     0.458870000000     0.376370000000    -0.0162517  
C152     C      0.251030000000     0.550090000000     0.376520000000    -0.065462   
C153     C      0.210510000000     0.477110000000     0.376480000000     0.0107753  
C154     C      0.210230000000     0.524650000000     0.376570000000     0.0105231  
C155     C      0.002440000000     0.959580000000     0.457350000000    -0.0163938  
C156     C      0.000440000000     0.043010000000     0.545990000000    -0.0164438  
C157     C      0.002810000000     0.959660000000     0.546010000000    -0.016428   
C158     C      0.002200000000     0.977550000000     0.522180000000     0.011173   
C159     C      0.000850000000     0.025070000000     0.522170000000     0.0105555  
C160     C      0.000050000000     0.050160000000     0.501660000000    -0.06574    
C161     C      0.000070000000     0.042930000000     0.457340000000    -0.0164867  
C162     C      0.002830000000     0.952430000000     0.501680000000    -0.0656984  
C163     C      0.000670000000     0.025040000000     0.481160000000     0.0105816  
C164     C      0.002020000000     0.977510000000     0.481170000000     0.0111627  
C165     C      0.839600000000     0.043520000000     0.376210000000    -0.0161531  
C166     C      0.662810000000     0.958890000000     0.376150000000    -0.0161788  
C167     C      0.662430000000     0.042270000000     0.376560000000    -0.0158629  
C168     C      0.710090000000     0.024670000000     0.376370000000     0.0101174  
C169     C      0.710350000000     0.977120000000     0.376270000000     0.01118    
C170     C      0.751510000000     0.952320000000     0.376350000000    -0.0657002  
C171     C      0.839970000000     0.960150000000     0.376650000000    -0.0158859  
C172     C      0.750900000000     0.050090000000     0.376330000000    -0.0652199  
C173     C      0.792310000000     0.977750000000     0.376420000000     0.0109779  
C174     C      0.792050000000     0.025290000000     0.376290000000     0.0103355  
C175     C      0.339600000000     0.043520000000     0.376280000000    -0.0160645  
C176     C      0.162810000000     0.958890000000     0.376270000000    -0.0162361  
C177     C      0.162430000000     0.042260000000     0.376680000000    -0.0157854  
C178     C      0.210090000000     0.024660000000     0.376490000000     0.0100764  
C179     C      0.210350000000     0.977120000000     0.376380000000     0.0111983  
C180     C      0.251510000000     0.952320000000     0.376450000000    -0.0657113  
C181     C      0.339980000000     0.960150000000     0.376720000000    -0.0158562  
C182     C      0.250890000000     0.050090000000     0.376440000000    -0.0651906  
C183     C      0.292320000000     0.977750000000     0.376510000000     0.0109657  
C184     C      0.292050000000     0.025290000000     0.376390000000     0.0102785  
C185     C      0.526140000000     0.467870000000     0.707470000000    -0.016793   
C186     C      0.468300000000     0.527140000000     0.795970000000    -0.0167941  
C187     C      0.534190000000     0.476020000000     0.796040000000    -0.0168267  
C188     C      0.519040000000     0.485710000000     0.772230000000     0.0113472  
C189     C      0.483690000000     0.517500000000     0.772190000000     0.0113561  
C190     C      0.467510000000     0.536780000000     0.751690000000    -0.0657533  
C191     C      0.477310000000     0.535490000000     0.707420000000    -0.016811   
C192     C      0.535450000000     0.466470000000     0.751760000000    -0.0657247  
C193     C      0.486320000000     0.519860000000     0.731230000000     0.0113621  
C194     C      0.516870000000     0.483440000000     0.731260000000     0.0113501  
C195     C      0.468230000000     0.976110000000     0.795890000000    -0.016825   
C196     C      0.526030000000     0.035290000000     0.707370000000    -0.0166948  
C197     C      0.477190000000     0.967680000000     0.707350000000    -0.0167546  
C198     C      0.486210000000     0.983330000000     0.731150000000     0.0117878  
C199     C      0.516760000000     0.019750000000     0.731170000000     0.0109072  
C200     C      0.535350000000     0.036740000000     0.751660000000    -0.0654579  
C201     C      0.534110000000     0.027240000000     0.795950000000    -0.016638   
C202     C      0.467410000000     0.966430000000     0.751620000000    -0.0660037  
C203     C      0.518950000000     0.017530000000     0.772130000000     0.0108569  
C204     C      0.483600000000     0.985740000000     0.772110000000     0.0118294  
C205     C      0.464160000000     0.663390000000     0.877610000000    -0.015917   
C206     C      0.547380000000     0.840620000000     0.875500000000    -0.0163084  
C207     C      0.464120000000     0.839820000000     0.877530000000    -0.01597    
C208     C      0.482380000000     0.792510000000     0.877110000000     0.0110914  
C209     C      0.529860000000     0.792700000000     0.875950000000     0.0102195  
C210     C      0.555000000000     0.751620000000     0.875360000000    -0.0650038  
C211     C      0.547420000000     0.662610000000     0.875590000000    -0.0163551  
C212     C      0.457360000000     0.751600000000     0.877740000000    -0.0659767  
C213     C      0.529880000000     0.710520000000     0.875990000000     0.0102239  
C214     C      0.482400000000     0.710700000000     0.877150000000     0.0110714  
C215     C      0.454560000000     0.162600000000     0.875530000000    -0.016211   
C216     C      0.537780000000     0.339820000000     0.877700000000    -0.0158951  
C217     C      0.454540000000     0.340610000000     0.875570000000    -0.0162566  
C218     C      0.472070000000     0.292690000000     0.876020000000     0.0101634  
C219     C      0.519540000000     0.292510000000     0.877230000000     0.0110733  
C220     C      0.544570000000     0.251610000000     0.877870000000    -0.0659751  
C221     C      0.537800000000     0.163400000000     0.877670000000    -0.0159241  
C222     C      0.446950000000     0.251600000000     0.875360000000    -0.064919   
C223     C      0.519550000000     0.210710000000     0.877220000000     0.0110923  
C224     C      0.472080000000     0.210520000000     0.876000000000     0.0101498  
C225     C      0.968860000000     0.527360000000     0.796030000000    -0.0167803  
C226     C      0.026370000000     0.467940000000     0.707500000000    -0.0166753  
C227     C      0.977540000000     0.535560000000     0.707470000000    -0.0168716  
C228     C      0.986640000000     0.519980000000     0.731270000000     0.0119104  
C229     C      0.017200000000     0.483550000000     0.731290000000     0.0108311  
C230     C      0.035850000000     0.466620000000     0.751780000000    -0.0654515  
C231     C      0.034750000000     0.476230000000     0.796060000000    -0.0166577  
C232     C      0.967920000000     0.536930000000     0.751740000000    -0.0660293  
C233     C      0.019520000000     0.485890000000     0.772250000000     0.0108297  
C234     C      0.984170000000     0.517680000000     0.772230000000     0.0118591  
C235     C      0.026310000000     0.035300000000     0.707390000000    -0.0165714  
C236     C      0.968790000000     0.976150000000     0.795960000000    -0.0167516  
C237     C      0.034680000000     0.027280000000     0.795960000000    -0.0165787  
C238     C      0.019450000000     0.017550000000     0.772160000000     0.0103616  
C239     C      0.984100000000     0.985760000000     0.772160000000     0.0123005  
C240     C      0.967850000000     0.966450000000     0.751680000000    -0.0662602  
C241     C      0.977470000000     0.967690000000     0.707410000000    -0.0167619  
C242     C      0.035780000000     0.036760000000     0.751670000000    -0.0651531  
C243     C      0.986570000000     0.983350000000     0.731200000000     0.0123277  
C244     C      0.017130000000     0.019760000000     0.731190000000     0.0103678  
C245     C      0.048060000000     0.840790000000     0.875570000000    -0.0161284  
C246     C      0.964840000000     0.663560000000     0.877690000000    -0.01596    
C247     C      0.048100000000     0.662770000000     0.875650000000    -0.0161386  
C248     C      0.030560000000     0.710690000000     0.876070000000     0.00966315 
C249     C      0.983080000000     0.710870000000     0.877230000000     0.0116165  
C250     C      0.958050000000     0.751770000000     0.877830000000    -0.0662713  
C251     C      0.964800000000     0.839980000000     0.877630000000    -0.0160332  
C252     C      0.055680000000     0.751780000000     0.875430000000    -0.0646578  
C253     C      0.983060000000     0.792670000000     0.877200000000     0.0116611  
C254     C      0.030540000000     0.792870000000     0.876030000000     0.00964441 
C255     C      0.038490000000     0.163560000000     0.877650000000    -0.0160402  
C256     C      0.955220000000     0.340780000000     0.875580000000    -0.0163862  
C257     C      0.038470000000     0.339990000000     0.877690000000    -0.0160171  
C258     C      0.020220000000     0.292680000000     0.877220000000     0.0106203  
C259     C      0.972750000000     0.292860000000     0.876020000000     0.0106711  
C260     C      0.947630000000     0.251770000000     0.875370000000    -0.0652037  
C261     C      0.955240000000     0.162770000000     0.875530000000    -0.0163297  
C262     C      0.045250000000     0.251780000000     0.877840000000    -0.0657203  
C263     C      0.972760000000     0.210680000000     0.875990000000     0.0106513  
C264     C      0.020230000000     0.210870000000     0.877200000000     0.0106271  
C265     C      0.467390000000     0.476260000000     0.207470000000    -0.016831   
C266     C      0.526040000000     0.534590000000     0.295980000000    -0.0168693  
C267     C      0.476220000000     0.467700000000     0.296020000000    -0.0168804  
C268     C      0.485470000000     0.483190000000     0.272220000000     0.0113807  
C269     C      0.516600000000     0.519130000000     0.272190000000     0.0114178  
C270     C      0.535510000000     0.535750000000     0.251700000000    -0.0657862  
C271     C      0.534240000000     0.526120000000     0.207420000000    -0.0168177  
C272     C      0.466410000000     0.466590000000     0.251750000000    -0.0657675  
C273     C      0.518840000000     0.516760000000     0.231230000000     0.0113814  
C274     C      0.482930000000     0.485610000000     0.231260000000     0.0113824  
C275     C      0.542370000000     0.500650000000     0.046060000000    -0.0160884  
C276     C      0.459100000000     0.501830000000     0.957380000000    -0.0160968  
C277     C      0.542470000000     0.501300000000     0.957410000000    -0.0160623  
C278     C      0.524520000000     0.501280000000     0.981230000000     0.0107653  
C279     C      0.476990000000     0.501690000000     0.981210000000     0.0107552  
C280     C      0.451850000000     0.501910000000     0.001710000000    -0.0653733  
C281     C      0.459010000000     0.501830000000     0.046050000000    -0.0160504  
C282     C      0.549610000000     0.500900000000     0.001740000000    -0.0654105  
C283     C      0.476940000000     0.501620000000     0.022230000000     0.0107296  
C284     C      0.524470000000     0.501040000000     0.022240000000     0.0107941  
C285     C      0.467320000000     0.976290000000     0.207380000000    -0.0169312  
C286     C      0.525930000000     0.034620000000     0.295900000000    -0.0167781  
C287     C      0.476060000000     0.967760000000     0.295930000000    -0.0168109  
C288     C      0.485350000000     0.983240000000     0.272130000000     0.0118223  
C289     C      0.516490000000     0.019160000000     0.272110000000     0.0109561  
C290     C      0.535440000000     0.035770000000     0.251620000000    -0.065511   
C291     C      0.534200000000     0.026130000000     0.207340000000    -0.0166956  
C292     C      0.466300000000     0.966650000000     0.251660000000    -0.0660049  
C293     C      0.518770000000     0.016790000000     0.231150000000     0.0109043  
C294     C      0.482850000000     0.985650000000     0.231170000000     0.0118664  
C295     C      0.459130000000     0.002130000000     0.957300000000    -0.0164322  
C296     C      0.542390000000     0.000330000000     0.045970000000    -0.0165566  
C297     C      0.459040000000     0.002050000000     0.045960000000    -0.0163326  
C298     C      0.476970000000     0.001710000000     0.022140000000     0.0107013  
C299     C      0.524500000000     0.000790000000     0.022150000000     0.0110181  
C300     C      0.549630000000     0.000410000000     0.001650000000    -0.0659593  
C301     C      0.542490000000     0.000780000000     0.957330000000    -0.0165451  
C302     C      0.451890000000     0.002210000000     0.001630000000    -0.0653981  
C303     C      0.524540000000     0.000970000000     0.981140000000     0.0110119  
C304     C      0.477010000000     0.001790000000     0.981130000000     0.010704   
C305     C      0.459640000000     0.839940000000     0.126670000000    -0.0158746  
C306     C      0.541720000000     0.662390000000     0.126730000000    -0.0159043  
C307     C      0.458360000000     0.662770000000     0.127140000000    -0.016183   
C308     C      0.476590000000     0.710310000000     0.127030000000     0.0107414  
C309     C      0.524130000000     0.710040000000     0.126910000000     0.0105635  
C310     C      0.549560000000     0.750850000000     0.126960000000    -0.065514   
C311     C      0.543000000000     0.839550000000     0.127090000000    -0.0162623  
C312     C      0.451800000000     0.751470000000     0.126950000000    -0.0654337  
C313     C      0.524770000000     0.792010000000     0.127000000000     0.0108101  
C314     C      0.477230000000     0.792280000000     0.126880000000     0.0105115  
C315     C      0.459690000000     0.339940000000     0.126730000000    -0.0159847  
C316     C      0.541780000000     0.162380000000     0.126640000000    -0.0159786  
C317     C      0.458410000000     0.162770000000     0.127070000000    -0.0162502  
C318     C      0.476650000000     0.210310000000     0.126980000000     0.0107818  
C319     C      0.524190000000     0.210040000000     0.126850000000     0.0105546  
C320     C      0.549620000000     0.250850000000     0.126920000000    -0.0655039  
C321     C      0.543060000000     0.339550000000     0.127110000000    -0.0162469  
C322     C      0.451860000000     0.251470000000     0.126950000000    -0.0655128  
C323     C      0.524820000000     0.292010000000     0.127000000000     0.0107729  
C324     C      0.477290000000     0.292280000000     0.126900000000     0.010565   
C325     C      0.976460000000     0.467690000000     0.296040000000    -0.0168644  
C326     C      0.034770000000     0.526090000000     0.207480000000    -0.0166919  
C327     C      0.967920000000     0.476220000000     0.207480000000    -0.0168569  
C328     C      0.983400000000     0.485570000000     0.231280000000     0.0119165  
C329     C      0.019310000000     0.516730000000     0.231280000000     0.0108439  
C330     C      0.035920000000     0.535720000000     0.251760000000    -0.0654536  
C331     C      0.026290000000     0.534580000000     0.296040000000    -0.016668   
C332     C      0.966810000000     0.466570000000     0.251760000000    -0.0660495  
C333     C      0.016940000000     0.519100000000     0.272240000000     0.0108379  
C334     C      0.985800000000     0.483170000000     0.272240000000     0.0119257  
C335     C      0.959850000000     0.501930000000     0.957420000000    -0.016037   
C336     C      0.043100000000     0.500720000000     0.046100000000    -0.0159204  
C337     C      0.959740000000     0.501900000000     0.046080000000    -0.0160724  
C338     C      0.977680000000     0.501700000000     0.022260000000     0.0112976  
C339     C      0.025210000000     0.501120000000     0.022280000000     0.0102363  
C340     C      0.050350000000     0.500990000000     0.001780000000    -0.0650749  
C341     C      0.043210000000     0.501400000000     0.957450000000    -0.015949   
C342     C      0.952600000000     0.501990000000     0.001750000000    -0.0656901  
C343     C      0.025270000000     0.501380000000     0.981260000000     0.0102255  
C344     C      0.977730000000     0.501770000000     0.981250000000     0.0112642  
C345     C      0.967870000000     0.976240000000     0.207390000000    -0.016795   
C346     C      0.026180000000     0.034600000000     0.295960000000    -0.0166242  
C347     C      0.976310000000     0.967740000000     0.295950000000    -0.0167764  
C348     C      0.985680000000     0.983210000000     0.272150000000     0.0123581  
C349     C      0.016830000000     0.019130000000     0.272160000000     0.0104008  
C350     C      0.035840000000     0.035730000000     0.251680000000    -0.0652007  
C351     C      0.034740000000     0.026080000000     0.207400000000    -0.0166055  
C352     C      0.966700000000     0.966600000000     0.251670000000    -0.0663289  
C353     C      0.019250000000     0.016730000000     0.231200000000     0.0104018  
C354     C      0.983320000000     0.985590000000     0.231190000000     0.0123468  
C355     C      0.043230000000     0.001020000000     0.957360000000    -0.0163019  
C356     C      0.959770000000     0.002180000000     0.045990000000    -0.0163945  
C357     C      0.043120000000     0.000470000000     0.046010000000    -0.0163464  
C358     C      0.025240000000     0.000960000000     0.022190000000     0.0104333  
C359     C      0.977710000000     0.001890000000     0.022180000000     0.0112506  
C360     C      0.952630000000     0.002410000000     0.001660000000    -0.0657123  
C361     C      0.959870000000     0.002370000000     0.957340000000    -0.016405   
C362     C      0.050370000000     0.000620000000     0.001690000000    -0.0655593  
C363     C      0.977760000000     0.002020000000     0.981160000000     0.0112637  
C364     C      0.025290000000     0.001190000000     0.981180000000     0.010407   
C365     C      0.960300000000     0.839980000000     0.126670000000    -0.0158264  
C366     C      0.042380000000     0.662420000000     0.126790000000    -0.0157748  
C367     C      0.959020000000     0.662800000000     0.127170000000    -0.0161451  
C368     C      0.977250000000     0.710340000000     0.127050000000     0.0112381  
C369     C      0.024790000000     0.710080000000     0.126950000000     0.0100504  
C370     C      0.050220000000     0.750880000000     0.127000000000    -0.0651907  
C371     C      0.043660000000     0.839590000000     0.127110000000    -0.0160603  
C372     C      0.952460000000     0.751510000000     0.126960000000    -0.0657148  
C373     C      0.025420000000     0.792050000000     0.127020000000     0.0102486  
C374     C      0.977890000000     0.792310000000     0.126890000000     0.0110273  
C375     C      0.960350000000     0.339970000000     0.126740000000    -0.0158849  
C376     C      0.042440000000     0.162420000000     0.126710000000    -0.0158292  
C377     C      0.959070000000     0.162810000000     0.127130000000    -0.016145   
C378     C      0.977310000000     0.210350000000     0.127030000000     0.0112593  
C379     C      0.024850000000     0.210080000000     0.126920000000     0.0100505  
C380     C      0.050280000000     0.250880000000     0.126980000000    -0.0652041  
C381     C      0.043720000000     0.339590000000     0.127160000000    -0.0161414  
C382     C      0.952520000000     0.251510000000     0.126980000000    -0.0657804  
C383     C      0.025480000000     0.292050000000     0.127050000000     0.0102538  
C384     C      0.977950000000     0.292310000000     0.126930000000     0.0110577  
H1       H      0.656110000000     0.439130000000     0.642180000000     0.0389315  
H2       H      0.656840000000     0.564750000000     0.642780000000     0.0394365  
H3       H      0.752510000000     0.587610000000     0.626980000000     0.0411539  
H4       H      0.751320000000     0.415580000000     0.627060000000     0.0411577  
H5       H      0.846970000000     0.438500000000     0.642860000000     0.0394424  
H6       H      0.847430000000     0.563410000000     0.611150000000     0.0398663  
H7       H      0.656410000000     0.439730000000     0.611180000000     0.0398601  
H8       H      0.656860000000     0.565440000000     0.611780000000     0.039001   
H9       H      0.847700000000     0.564120000000     0.642150000000     0.0389293  
H10      H      0.846980000000     0.437700000000     0.611860000000     0.0390185  
H11      H      0.346980000000     0.437700000000     0.611750000000     0.0389735  
H12      H      0.347430000000     0.563390000000     0.611040000000     0.0398299  
H13      H      0.252510000000     0.587610000000     0.626890000000     0.0411344  
H14      H      0.251310000000     0.415580000000     0.626970000000     0.0411349  
H15      H      0.156370000000     0.439740000000     0.611120000000     0.0398212  
H16      H      0.156870000000     0.564760000000     0.642720000000     0.0394027  
H17      H      0.346970000000     0.438480000000     0.642750000000     0.0394089  
H18      H      0.347710000000     0.564110000000     0.642040000000     0.0389185  
H19      H      0.156830000000     0.565440000000     0.611720000000     0.0389608  
H20      H      0.156130000000     0.439130000000     0.642120000000     0.0389154  
H21      H      0.847320000000     0.939540000000     0.611110000000     0.0399227  
H22      H      0.846900000000     0.065260000000     0.611760000000     0.0389564  
H23      H      0.751240000000     0.087420000000     0.626930000000     0.0410802  
H24      H      0.752380000000     0.915390000000     0.626960000000     0.0412233  
H25      H      0.656740000000     0.937530000000     0.611750000000     0.0389922  
H26      H      0.656010000000     0.063950000000     0.642040000000     0.038864   
H27      H      0.847600000000     0.938890000000     0.642110000000     0.0389448  
H28      H      0.846880000000     0.064510000000     0.642760000000     0.0394044  
H29      H      0.656320000000     0.063240000000     0.611050000000     0.0398165  
H30      H      0.656730000000     0.938330000000     0.642760000000     0.0394542  
H31      H      0.347320000000     0.939550000000     0.610970000000     0.0399008  
H32      H      0.346900000000     0.065250000000     0.611620000000     0.0388961  
H33      H      0.251240000000     0.087420000000     0.626810000000     0.0410551  
H34      H      0.252380000000     0.915400000000     0.626850000000     0.0412417  
H35      H      0.156710000000     0.937540000000     0.611670000000     0.0390018  
H36      H      0.156040000000     0.063960000000     0.641960000000     0.0388687  
H37      H      0.347600000000     0.938870000000     0.641970000000     0.0389402  
H38      H      0.346880000000     0.064510000000     0.642630000000     0.0393696  
H39      H      0.156290000000     0.063240000000     0.610970000000     0.0398057  
H40      H      0.156760000000     0.938330000000     0.642670000000     0.0394883  
H41      H      0.532530000000     0.438420000000     0.549470000000     0.0391881  
H42      H      0.533340000000     0.564070000000     0.549370000000     0.039549   
H43      H      0.501760000000     0.587400000000     0.501690000000     0.0411962  
H44      H      0.501790000000     0.415370000000     0.501760000000     0.0411772  
H45      H      0.532990000000     0.438700000000     0.454020000000     0.0395399  
H46      H      0.470180000000     0.563920000000     0.454040000000     0.039575   
H47      H      0.470580000000     0.438830000000     0.549470000000     0.039548   
H48      H      0.471370000000     0.564530000000     0.549460000000     0.0392055  
H49      H      0.532140000000     0.564380000000     0.453930000000     0.0392248  
H50      H      0.471030000000     0.438250000000     0.454040000000     0.0391906  
H51      H      0.472260000000     0.937570000000     0.453970000000     0.0393442  
H52      H      0.468680000000     0.063180000000     0.453940000000     0.039408   
H53      H      0.499210000000     0.087280000000     0.501620000000     0.0410952  
H54      H      0.504100000000     0.915320000000     0.501650000000     0.0412714  
H55      H      0.472670000000     0.937640000000     0.549390000000     0.039323   
H56      H      0.531040000000     0.065020000000     0.549320000000     0.0392536  
H57      H      0.534190000000     0.939320000000     0.453890000000     0.0395069  
H58      H      0.530620000000     0.064950000000     0.453870000000     0.0392526  
H59      H      0.469100000000     0.063290000000     0.549370000000     0.0394123  
H60      H      0.534610000000     0.939420000000     0.549340000000     0.0394694  
H61      H      0.971200000000     0.564510000000     0.549500000000     0.039532   
H62      H      0.970400000000     0.438830000000     0.549510000000     0.0398801  
H63      H      0.001610000000     0.415360000000     0.501790000000     0.0411489  
H64      H      0.001570000000     0.587390000000     0.501720000000     0.0411486  
H65      H      0.969990000000     0.563900000000     0.454070000000     0.0398561  
H66      H      0.032800000000     0.438690000000     0.454060000000     0.0396114  
H67      H      0.033160000000     0.564070000000     0.549400000000     0.0396112  
H68      H      0.032360000000     0.438410000000     0.549490000000     0.0392497  
H69      H      0.970840000000     0.438250000000     0.454070000000     0.0394982  
H70      H      0.031950000000     0.564380000000     0.453970000000     0.0392576  
H71      H      0.656270000000     0.437340000000     0.391630000000     0.0389685  
H72      H      0.655820000000     0.563060000000     0.392250000000     0.0398671  
H73      H      0.750750000000     0.587220000000     0.376420000000     0.0411585  
H74      H      0.751960000000     0.415200000000     0.376480000000     0.0411762  
H75      H      0.846850000000     0.439410000000     0.392370000000     0.0398747  
H76      H      0.846440000000     0.564320000000     0.360660000000     0.0394296  
H77      H      0.656310000000     0.438060000000     0.360630000000     0.0393974  
H78      H      0.655570000000     0.563670000000     0.361250000000     0.0389321  
H79      H      0.846390000000     0.565110000000     0.391670000000     0.0390032  
H80      H      0.847180000000     0.438700000000     0.361370000000     0.0389412  
H81      H      0.346410000000     0.565110000000     0.391740000000     0.0389521  
H82      H      0.346880000000     0.439420000000     0.392440000000     0.0398367  
H83      H      0.251960000000     0.415200000000     0.376580000000     0.0411591  
H84      H      0.250750000000     0.587220000000     0.376520000000     0.0411378  
H85      H      0.155820000000     0.563040000000     0.392370000000     0.0398671  
H86      H      0.156310000000     0.438050000000     0.360750000000     0.0393709  
H87      H      0.346400000000     0.564330000000     0.360730000000     0.0393855  
H88      H      0.347160000000     0.438690000000     0.361440000000     0.0389157  
H89      H      0.156280000000     0.437340000000     0.391750000000     0.0389524  
H90      H      0.155560000000     0.563680000000     0.361370000000     0.0389154  
H91      H      0.034390000000     0.939410000000     0.549370000000     0.0395476  
H92      H      0.030830000000     0.065020000000     0.549350000000     0.039321   
H93      H      0.998990000000     0.087270000000     0.501660000000     0.0415075  
H94      H      0.003880000000     0.915320000000     0.501690000000     0.0412197  
H95      H      0.034000000000     0.939310000000     0.453940000000     0.0395416  
H96      H      0.968480000000     0.063170000000     0.453970000000     0.0397391  
H97      H      0.972460000000     0.937640000000     0.549430000000     0.0396494  
H98      H      0.968890000000     0.063280000000     0.549410000000     0.0397335  
H99      H      0.030420000000     0.064960000000     0.453910000000     0.0393387  
H100     H      0.972060000000     0.937570000000     0.453990000000     0.039642   
H101     H      0.655420000000     0.063720000000     0.361190000000     0.0388901  
H102     H      0.656150000000     0.938110000000     0.360510000000     0.0394383  
H103     H      0.751780000000     0.915190000000     0.376380000000     0.0412265  
H104     H      0.750630000000     0.087220000000     0.376350000000     0.041085   
H105     H      0.846300000000     0.064290000000     0.360570000000     0.0394001  
H106     H      0.846680000000     0.939390000000     0.392290000000     0.0399359  
H107     H      0.655680000000     0.063060000000     0.392190000000     0.0398457  
H108     H      0.656110000000     0.937330000000     0.391520000000     0.0389869  
H109     H      0.847030000000     0.938660000000     0.361290000000     0.0389747  
H110     H      0.846250000000     0.065090000000     0.391570000000     0.0389397  
H111     H      0.155420000000     0.063730000000     0.361310000000     0.0388554  
H112     H      0.156150000000     0.938100000000     0.360640000000     0.0394426  
H113     H      0.251780000000     0.915190000000     0.376480000000     0.0412097  
H114     H      0.250620000000     0.087220000000     0.376450000000     0.0410576  
H115     H      0.346260000000     0.064300000000     0.360640000000     0.0393327  
H116     H      0.346710000000     0.939390000000     0.392360000000     0.0398936  
H117     H      0.155680000000     0.063040000000     0.392310000000     0.0398142  
H118     H      0.156110000000     0.937340000000     0.391640000000     0.038981   
H119     H      0.347000000000     0.938660000000     0.361360000000     0.0389343  
H120     H      0.346280000000     0.065090000000     0.391650000000     0.0388895  
H121     H      0.569690000000     0.488610000000     0.798960000000     0.0416398  
H122     H      0.469480000000     0.564430000000     0.799890000000     0.0363979  
H123     H      0.441720000000     0.563480000000     0.751660000000     0.0418417  
H124     H      0.561250000000     0.439770000000     0.751790000000     0.0418185  
H125     H      0.563470000000     0.467810000000     0.703620000000     0.0363744  
H126     H      0.440030000000     0.535570000000     0.703460000000     0.0363856  
H127     H      0.532960000000     0.438720000000     0.799940000000     0.0364001  
H128     H      0.432780000000     0.514520000000     0.798800000000     0.0416259  
H129     H      0.491160000000     0.570550000000     0.704580000000     0.0416118  
H130     H      0.512350000000     0.432810000000     0.704570000000     0.0416324  
H131     H      0.439900000000     0.967600000000     0.703390000000     0.0364355  
H132     H      0.512240000000     0.070350000000     0.704460000000     0.0415823  
H133     H      0.561150000000     0.063440000000     0.751680000000     0.0417355  
H134     H      0.441620000000     0.939730000000     0.751600000000     0.0419233  
H135     H      0.432710000000     0.988730000000     0.798720000000     0.0416996  
H136     H      0.569610000000     0.014650000000     0.798860000000     0.0415547  
H137     H      0.491020000000     0.932610000000     0.704510000000     0.0416396  
H138     H      0.563360000000     0.035340000000     0.703510000000     0.0363274  
H139     H      0.532880000000     0.064540000000     0.799840000000     0.0363554  
H140     H      0.469410000000     0.938830000000     0.799820000000     0.0364568  
H141     H      0.444420000000     0.846390000000     0.893530000000     0.039829   
H142     H      0.569930000000     0.847650000000     0.890460000000     0.0390619  
H143     H      0.592070000000     0.751620000000     0.874460000000     0.0412284  
H144     H      0.420280000000     0.751590000000     0.878640000000     0.041118   
H145     H      0.444460000000     0.656860000000     0.893610000000     0.0397812  
H146     H      0.566970000000     0.655580000000     0.859610000000     0.0392259  
H147     H      0.441410000000     0.846340000000     0.862560000000     0.0391721  
H148     H      0.566900000000     0.847600000000     0.859500000000     0.0392521  
H149     H      0.569950000000     0.655640000000     0.890570000000     0.0390449  
H150     H      0.441450000000     0.656820000000     0.862640000000     0.0391755  
H151     H      0.431920000000     0.347610000000     0.890520000000     0.039002   
H152     H      0.557400000000     0.346370000000     0.893730000000     0.0397634  
H153     H      0.581650000000     0.251620000000     0.878820000000     0.0410964  
H154     H      0.409870000000     0.251600000000     0.874410000000     0.0411632  
H155     H      0.431930000000     0.155570000000     0.890460000000     0.0389857  
H156     H      0.560600000000     0.156870000000     0.862730000000     0.039153   
H157     H      0.435070000000     0.347610000000     0.859560000000     0.0391971  
H158     H      0.560570000000     0.346370000000     0.862760000000     0.0391648  
H159     H      0.557410000000     0.156830000000     0.893700000000     0.0397634  
H160     H      0.435110000000     0.155620000000     0.859500000000     0.0391808  
H161     H      0.991370000000     0.570610000000     0.704590000000     0.0417245  
H162     H      0.063680000000     0.467870000000     0.703600000000     0.0363413  
H163     H      0.061640000000     0.439920000000     0.751800000000     0.0417412  
H164     H      0.942120000000     0.563630000000     0.751730000000     0.0419238  
H165     H      0.970060000000     0.564650000000     0.799930000000     0.0364673  
H166     H      0.033540000000     0.438940000000     0.799970000000     0.0363239  
H167     H      0.940240000000     0.535630000000     0.703550000000     0.0364502  
H168     H      0.012560000000     0.432870000000     0.704630000000     0.0415489  
H169     H      0.070260000000     0.488840000000     0.798950000000     0.0415789  
H170     H      0.933350000000     0.514750000000     0.798880000000     0.0416715  
H171     H      0.033450000000     0.064580000000     0.799840000000     0.0362985  
H172     H      0.933280000000     0.988760000000     0.798810000000     0.0417391  
H173     H      0.942050000000     0.939750000000     0.751690000000     0.0420023  
H174     H      0.061580000000     0.063460000000     0.751670000000     0.0416374  
H175     H      0.012510000000     0.070360000000     0.704490000000     0.0415089  
H176     H      0.991290000000     0.932630000000     0.704560000000     0.0417311  
H177     H      0.070180000000     0.014690000000     0.798850000000     0.0415217  
H178     H      0.970000000000     0.938860000000     0.799890000000     0.0365111  
H179     H      0.940160000000     0.967610000000     0.703490000000     0.0364909  
H180     H      0.063620000000     0.035350000000     0.703490000000     0.0362894  
H181     H      0.070650000000     0.655790000000     0.890620000000     0.03898    
H182     H      0.945160000000     0.657020000000     0.893700000000     0.0398359  
H183     H      0.920960000000     0.751760000000     0.878750000000     0.0411878  
H184     H      0.092750000000     0.751790000000     0.874510000000     0.0411232  
H185     H      0.070630000000     0.847820000000     0.890520000000     0.0389982  
H186     H      0.942070000000     0.846500000000     0.862670000000     0.0392402  
H187     H      0.067630000000     0.655760000000     0.859660000000     0.0391455  
H188     H      0.942120000000     0.656990000000     0.862730000000     0.0392394  
H189     H      0.945130000000     0.846560000000     0.893630000000     0.0398978  
H190     H      0.067560000000     0.847760000000     0.859560000000     0.0391812  
H191     H      0.061230000000     0.346540000000     0.862740000000     0.0391491  
H192     H      0.935740000000     0.347790000000     0.859580000000     0.0392703  
H193     H      0.910550000000     0.251770000000     0.874430000000     0.0412554  
H194     H      0.082330000000     0.251780000000     0.878780000000     0.0410246  
H195     H      0.061260000000     0.157030000000     0.862700000000     0.039131   
H196     H      0.932630000000     0.155740000000     0.890480000000     0.0390367  
H197     H      0.058100000000     0.346530000000     0.893710000000     0.0397548  
H198     H      0.932620000000     0.347770000000     0.890540000000     0.0390603  
H199     H      0.935770000000     0.155790000000     0.859510000000     0.0392439  
H200     H      0.058110000000     0.156990000000     0.893670000000     0.039767   
H201     H      0.489540000000     0.432450000000     0.298870000000     0.041661   
H202     H      0.563360000000     0.534120000000     0.299860000000     0.0363327  
H203     H      0.561760000000     0.562000000000     0.251680000000     0.0418846  
H204     H      0.440170000000     0.440330000000     0.251770000000     0.0418783  
H205     H      0.467860000000     0.438950000000     0.203550000000     0.0363216  
H206     H      0.533730000000     0.563430000000     0.203510000000     0.0363237  
H207     H      0.438930000000     0.468170000000     0.299970000000     0.0363321  
H208     H      0.512750000000     0.569850000000     0.298870000000     0.041668   
H209     H      0.569490000000     0.512840000000     0.204530000000     0.0416711  
H210     H      0.432120000000     0.489550000000     0.204630000000     0.0416353  
H211     H      0.563450000000     0.470220000000     0.953990000000     0.0392053  
H212     H      0.437780000000     0.470980000000     0.953970000000     0.0395558  
H213     H      0.414730000000     0.502290000000     0.001700000000     0.0411887  
H214     H      0.586730000000     0.500520000000     0.001750000000     0.0411942  
H215     H      0.563040000000     0.469330000000     0.049410000000     0.0395166  
H216     H      0.438320000000     0.533120000000     0.049450000000     0.039514   
H217     H      0.563790000000     0.532180000000     0.954070000000     0.0395458  
H218     H      0.438150000000     0.532950000000     0.954000000000     0.0391869  
H219     H      0.437410000000     0.471160000000     0.049420000000     0.0392221  
H220     H      0.563970000000     0.531300000000     0.049500000000     0.0392665  
H221     H      0.489360000000     0.932490000000     0.298790000000     0.0416806  
H222     H      0.563240000000     0.034120000000     0.299790000000     0.0362949  
H223     H      0.561700000000     0.062010000000     0.251600000000     0.0417966  
H224     H      0.440050000000     0.940390000000     0.251670000000     0.0419517  
H225     H      0.467780000000     0.938990000000     0.203460000000     0.0364012  
H226     H      0.533710000000     0.063440000000     0.203430000000     0.0362849  
H227     H      0.438770000000     0.968240000000     0.299870000000     0.0363815  
H228     H      0.512650000000     0.069880000000     0.298780000000     0.0416346  
H229     H      0.569450000000     0.012830000000     0.204460000000     0.0415892  
H230     H      0.432070000000     0.989610000000     0.204530000000     0.0417426  
H231     H      0.437250000000     0.971500000000     0.049340000000     0.0395016  
H232     H      0.562870000000     0.968890000000     0.049340000000     0.0397867  
H233     H      0.586740000000     0.999740000000     0.001660000000     0.0415469  
H234     H      0.414770000000     0.002900000000     0.001620000000     0.0411326  
H235     H      0.437510000000     0.971490000000     0.953890000000     0.0395766  
H236     H      0.564120000000     0.031440000000     0.953970000000     0.0393663  
H237     H      0.438540000000     0.033460000000     0.049360000000     0.0395264  
H238     H      0.564180000000     0.030840000000     0.049400000000     0.0393488  
H239     H      0.563150000000     0.969480000000     0.953910000000     0.039754   
H240     H      0.438490000000     0.033450000000     0.953920000000     0.039503   
H241     H      0.436810000000     0.656070000000     0.111770000000     0.0389409  
H242     H      0.562500000000     0.655630000000     0.111100000000     0.0398764  
H243     H      0.586680000000     0.750570000000     0.126940000000     0.0411717  
H244     H      0.414670000000     0.751750000000     0.126930000000     0.0411339  
H245     H      0.438870000000     0.846660000000     0.111030000000     0.0398729  
H246     H      0.563780000000     0.846240000000     0.142720000000     0.0394436  
H247     H      0.437580000000     0.656110000000     0.142780000000     0.0393839  
H248     H      0.563180000000     0.655380000000     0.142100000000     0.0389217  
H249     H      0.564550000000     0.846210000000     0.111720000000     0.0389883  
H250     H      0.438170000000     0.846990000000     0.142030000000     0.0389353  
H251     H      0.436850000000     0.156110000000     0.111710000000     0.0389565  
H252     H      0.562520000000     0.155660000000     0.110990000000     0.0398732  
H253     H      0.586740000000     0.250570000000     0.126890000000     0.0411539  
H254     H      0.414740000000     0.251750000000     0.126940000000     0.0411532  
H255     H      0.438900000000     0.346700000000     0.111100000000     0.0398807  
H256     H      0.563860000000     0.346200000000     0.142740000000     0.0394091  
H257     H      0.437640000000     0.156080000000     0.142710000000     0.0393888  
H258     H      0.563250000000     0.155330000000     0.141990000000     0.0389475  
H259     H      0.564590000000     0.346260000000     0.111740000000     0.0389593  
H260     H      0.438260000000     0.346940000000     0.142100000000     0.0389558  
H261     H      0.932660000000     0.489520000000     0.204620000000     0.0417035  
H262     H      0.034280000000     0.563400000000     0.203570000000     0.0362622  
H263     H      0.062160000000     0.561980000000     0.251760000000     0.0417793  
H264     H      0.940560000000     0.440310000000     0.251760000000     0.0419667  
H265     H      0.939160000000     0.468160000000     0.299960000000     0.0363831  
H266     H      0.063590000000     0.534110000000     0.299950000000     0.0362781  
H267     H      0.968410000000     0.438920000000     0.203560000000     0.0364081  
H268     H      0.070030000000     0.512810000000     0.204610000000     0.0416086  
H269     H      0.012980000000     0.569840000000     0.298900000000     0.0415723  
H270     H      0.989780000000     0.432440000000     0.298910000000     0.0417519  
H271     H      0.938140000000     0.471230000000     0.049450000000     0.0392805  
H272     H      0.063770000000     0.469410000000     0.049450000000     0.0394557  
H273     H      0.087470000000     0.500600000000     0.001790000000     0.0411003  
H274     H      0.915480000000     0.502370000000     0.001740000000     0.0412788  
H275     H      0.938520000000     0.471080000000     0.954010000000     0.039585   
H276     H      0.064530000000     0.532280000000     0.954110000000     0.0395067  
H277     H      0.939050000000     0.533190000000     0.049480000000     0.0395689  
H278     H      0.064710000000     0.531370000000     0.049540000000     0.0391889  
H279     H      0.064190000000     0.470310000000     0.954020000000     0.0391454  
H280     H      0.938890000000     0.533050000000     0.954040000000     0.0392303  
H281     H      0.989600000000     0.932480000000     0.298820000000     0.0417734  
H282     H      0.063480000000     0.034110000000     0.299870000000     0.0362343  
H283     H      0.062100000000     0.061970000000     0.251680000000     0.0416969  
H284     H      0.940450000000     0.940360000000     0.251660000000     0.0420805  
H285     H      0.968340000000     0.938940000000     0.203480000000     0.0364467  
H286     H      0.034270000000     0.063390000000     0.203490000000     0.0362284  
H287     H      0.939000000000     0.968230000000     0.299860000000     0.0364413  
H288     H      0.012890000000     0.069860000000     0.298820000000     0.0415599  
H289     H      0.069990000000     0.012770000000     0.204540000000     0.0415512  
H290     H      0.932620000000     0.989550000000     0.204520000000     0.0417645  
H291     H      0.064920000000     0.030980000000     0.049450000000     0.0392634  
H292     H      0.939270000000     0.033590000000     0.049400000000     0.0395948  
H293     H      0.915510000000     0.003090000000     0.001650000000     0.0412237  
H294     H      0.087490000000     0.999930000000     0.001700000000     0.0414203  
H295     H      0.064860000000     0.031700000000     0.954010000000     0.0392696  
H296     H      0.938240000000     0.971740000000     0.953920000000     0.0396236  
H297     H      0.063600000000     0.969020000000     0.049370000000     0.0397158  
H298     H      0.937990000000     0.971640000000     0.049360000000     0.0395889  
H299     H      0.939230000000     0.033700000000     0.953960000000     0.0395381  
H300     H      0.063900000000     0.969730000000     0.953940000000     0.0396668  
H301     H      0.937480000000     0.656090000000     0.111800000000     0.0389879  
H302     H      0.063180000000     0.655660000000     0.111170000000     0.0398254  
H303     H      0.087340000000     0.750610000000     0.126990000000     0.0410787  
H304     H      0.915330000000     0.751790000000     0.126930000000     0.0412189  
H305     H      0.939550000000     0.846690000000     0.111020000000     0.0399133  
H306     H      0.064430000000     0.846280000000     0.142750000000     0.0393656  
H307     H      0.938220000000     0.656160000000     0.142800000000     0.0394343  
H308     H      0.063810000000     0.655420000000     0.142170000000     0.0388785  
H309     H      0.065230000000     0.846240000000     0.111740000000     0.0389165  
H310     H      0.938810000000     0.847030000000     0.142020000000     0.0389781  
H311     H      0.937520000000     0.156140000000     0.111750000000     0.0389682  
H312     H      0.063210000000     0.155690000000     0.111080000000     0.0398226  
H313     H      0.087400000000     0.250600000000     0.126960000000     0.0410648  
H314     H      0.915400000000     0.251790000000     0.126960000000     0.0412347  
H315     H      0.939580000000     0.346720000000     0.111110000000     0.039918   
H316     H      0.064500000000     0.346250000000     0.142790000000     0.0393547  
H317     H      0.938280000000     0.156130000000     0.142760000000     0.039418   
H318     H      0.063890000000     0.155380000000     0.142080000000     0.0388803  
H319     H      0.065270000000     0.346280000000     0.111790000000     0.0389121  
H320     H      0.938890000000     0.346990000000     0.142110000000     0.0389736  
N1       N      0.868600000000     0.500800000000     0.626960000000    -0.181413   
N2       N      0.635220000000     0.502390000000     0.626930000000    -0.181411   
N3       N      0.135220000000     0.502400000000     0.626890000000    -0.18143    
N4       N      0.368600000000     0.500790000000     0.626860000000    -0.181445   
N5       N      0.635120000000     0.000640000000     0.626850000000    -0.181546   
N6       N      0.868500000000     0.002170000000     0.626890000000    -0.181454   
N7       N      0.135120000000     0.000650000000     0.626790000000    -0.181487   
N8       N      0.368500000000     0.002170000000     0.626760000000    -0.181515   
N9       N      0.501540000000     0.501290000000     0.443330000000    -0.18129    
N10      N      0.501970000000     0.501480000000     0.560110000000    -0.181297   
N11      N      0.501870000000     0.001350000000     0.560030000000    -0.181512   
N12      N      0.501390000000     0.001250000000     0.443240000000    -0.181488   
N13      N      0.001370000000     0.501290000000     0.443370000000    -0.181209   
N14      N      0.001810000000     0.501470000000     0.560150000000    -0.181235   
N15      N      0.868040000000     0.502010000000     0.376570000000    -0.181408   
N16      N      0.634660000000     0.500400000000     0.376480000000    -0.18141    
N17      N      0.134660000000     0.500400000000     0.376600000000    -0.181449   
N18      N      0.368040000000     0.502010000000     0.376620000000    -0.181451   
N19      N      0.001220000000     0.001240000000     0.443280000000    -0.181294   
N20      N      0.001680000000     0.001350000000     0.560060000000    -0.18126    
N21      N      0.867890000000     0.001980000000     0.376480000000    -0.181457   
N22      N      0.634510000000     0.000430000000     0.376390000000    -0.181501   
N23      N      0.367890000000     0.001980000000     0.376540000000    -0.181506   
N24      N      0.134510000000     0.000430000000     0.376510000000    -0.181503   
N25      N      0.501800000000     0.501690000000     0.693430000000    -0.181408   
N26      N      0.501170000000     0.501570000000     0.810020000000    -0.18128    
N27      N      0.501110000000     0.001700000000     0.809940000000    -0.181476   
N28      N      0.501680000000     0.001450000000     0.693350000000    -0.181325   
N29      N      0.505470000000     0.634880000000     0.876620000000    -0.181321   
N30      N      0.505430000000     0.868340000000     0.876510000000    -0.181319   
N31      N      0.496500000000     0.134880000000     0.876590000000    -0.181369   
N32      N      0.496480000000     0.368330000000     0.876640000000    -0.181274   
N33      N      0.001780000000     0.501800000000     0.810060000000    -0.18146    
N34      N      0.001970000000     0.501730000000     0.693470000000    -0.181308   
N35      N      0.001900000000     0.001470000000     0.693380000000    -0.181525   
N36      N      0.001710000000     0.001750000000     0.809970000000    -0.181408   
N37      N      0.006110000000     0.868500000000     0.876590000000    -0.181387   
N38      N      0.006160000000     0.635050000000     0.876680000000    -0.181392   
N39      N      0.997180000000     0.135050000000     0.876590000000    -0.1812     
N40      N      0.997160000000     0.368500000000     0.876650000000    -0.18123    
N41      N      0.500780000000     0.501190000000     0.193430000000    -0.181377   
N42      N      0.501180000000     0.501140000000     0.310010000000    -0.181211   
N43      N      0.500680000000     0.501200000000     0.060120000000    -0.181396   
N44      N      0.500810000000     0.501600000000     0.943340000000    -0.181269   
N45      N      0.500740000000     0.001210000000     0.193350000000    -0.181303   
N46      N      0.501040000000     0.001180000000     0.309930000000    -0.181419   
N47      N      0.500830000000     0.001490000000     0.943250000000    -0.181186   
N48      N      0.500700000000     0.001160000000     0.060030000000    -0.18125    
N49      N      0.501470000000     0.867850000000     0.126830000000    -0.18147    
N50      N      0.499890000000     0.634470000000     0.126900000000    -0.181535   
N51      N      0.501530000000     0.367850000000     0.126890000000    -0.181442   
N52      N      0.499940000000     0.134470000000     0.126810000000    -0.181474   
N53      N      0.001380000000     0.501140000000     0.310050000000    -0.18142    
N54      N      0.001340000000     0.501170000000     0.193470000000    -0.181332   
N55      N      0.001550000000     0.501710000000     0.943370000000    -0.181328   
N56      N      0.001410000000     0.501270000000     0.060150000000    -0.181375   
N57      N      0.001310000000     0.001160000000     0.193380000000    -0.181518   
N58      N      0.001230000000     0.001170000000     0.309970000000    -0.181509   
N59      N      0.001570000000     0.001740000000     0.943290000000    -0.181279   
N60      N      0.001430000000     0.001280000000     0.060070000000    -0.181342   
N61      N      0.002130000000     0.867890000000     0.126840000000    -0.181563   
N62      N      0.000550000000     0.634510000000     0.126950000000    -0.181596   
N63      N      0.002180000000     0.367890000000     0.126910000000    -0.181578   
N64      N      0.000600000000     0.134510000000     0.126870000000    -0.18158    
O1       O      0.040180000000     0.936500000000     0.127570000000    -0.555411   
O2       O      0.039180000000     0.066660000000     0.126000000000    -0.55873    
O3       O      0.039550000000     0.004410000000     0.159340000000    -0.556678   
O4       O      0.039730000000     0.000170000000     0.094220000000    -0.55717    
O5       O      0.963070000000     0.002270000000     0.094200000000    -0.556963   
O6       O      0.963130000000     0.997940000000     0.159320000000    -0.556137   
O7       O      0.962560000000     0.065890000000     0.127580000000    -0.555486   
O8       O      0.963560000000     0.935740000000     0.125960000000    -0.558378   
O9       O      0.962530000000     0.565880000000     0.127650000000    -0.555481   
O10      O      0.963580000000     0.435720000000     0.126060000000    -0.558624   
O11      O      0.963140000000     0.497950000000     0.159410000000    -0.556591   
O12      O      0.963050000000     0.502220000000     0.094290000000    -0.556842   
O13      O      0.039720000000     0.500220000000     0.094300000000    -0.557029   
O14      O      0.039560000000     0.504410000000     0.159420000000    -0.556849   
O15      O      0.040200000000     0.436510000000     0.127640000000    -0.55563    
O16      O      0.039150000000     0.566670000000     0.126090000000    -0.558847   
O17      O      0.462890000000     0.935700000000     0.125950000000    -0.558615   
O18      O      0.461900000000     0.065860000000     0.127530000000    -0.555639   
O19      O      0.462370000000     0.002200000000     0.094170000000    -0.556934   
O20      O      0.462510000000     0.997940000000     0.159300000000    -0.556435   
O21      O      0.538930000000     0.004410000000     0.159290000000    -0.556809   
O22      O      0.539030000000     0.000100000000     0.094170000000    -0.557255   
O23      O      0.538520000000     0.066620000000     0.125930000000    -0.558833   
O24      O      0.539510000000     0.936460000000     0.127540000000    -0.555552   
O25      O      0.539020000000     0.500170000000     0.094250000000    -0.556913   
O26      O      0.538950000000     0.504380000000     0.159370000000    -0.557127   
O27      O      0.539550000000     0.436480000000     0.127600000000    -0.555633   
O28      O      0.538490000000     0.566640000000     0.126030000000    -0.558913   
O29      O      0.461880000000     0.565840000000     0.127620000000    -0.55586    
O30      O      0.462920000000     0.435690000000     0.126040000000    -0.558876   
O31      O      0.462530000000     0.497930000000     0.159390000000    -0.55685    
O32      O      0.462350000000     0.502170000000     0.094260000000    -0.556859   
O33      O      0.039950000000     0.001430000000     0.909150000000    -0.55669    
O34      O      0.039760000000     0.006280000000     0.844040000000    -0.556694   
O35      O      0.037410000000     0.068190000000     0.877570000000    -0.559203   
O36      O      0.042410000000     0.938110000000     0.875630000000    -0.554327   
O37      O      0.965870000000     0.935360000000     0.877550000000    -0.558486   
O38      O      0.960880000000     0.065440000000     0.875600000000    -0.554756   
O39      O      0.963600000000     0.997260000000     0.844020000000    -0.556114   
O40      O      0.963260000000     0.002120000000     0.909130000000    -0.55643    
O41      O      0.039950000000     0.501970000000     0.909240000000    -0.556701   
O42      O      0.039800000000     0.497320000000     0.844130000000    -0.556864   
O43      O      0.042450000000     0.565420000000     0.875760000000    -0.554659   
O44      O      0.037410000000     0.435340000000     0.877620000000    -0.559285   
O45      O      0.960870000000     0.438130000000     0.875700000000    -0.554749   
O46      O      0.965910000000     0.568210000000     0.877600000000    -0.558806   
O47      O      0.963630000000     0.506260000000     0.844100000000    -0.556488   
O48      O      0.963250000000     0.501540000000     0.909210000000    -0.556628   
O49      O      0.541730000000     0.937950000000     0.875580000000    -0.554648   
O50      O      0.536730000000     0.068020000000     0.877560000000    -0.558956   
O51      O      0.539240000000     0.001210000000     0.909120000000    -0.556988   
O52      O      0.539110000000     0.006170000000     0.844020000000    -0.556838   
O53      O      0.462960000000     0.997140000000     0.843970000000    -0.55661    
O54      O      0.462550000000     0.001910000000     0.909090000000    -0.556886   
O55      O      0.460200000000     0.065270000000     0.875580000000    -0.554974   
O56      O      0.465190000000     0.935190000000     0.877480000000    -0.558858   
O57      O      0.465220000000     0.568040000000     0.877540000000    -0.558959   
O58      O      0.460190000000     0.437960000000     0.875670000000    -0.554674   
O59      O      0.462540000000     0.501410000000     0.909170000000    -0.556671   
O60      O      0.462990000000     0.506070000000     0.844050000000    -0.556851   
O61      O      0.539150000000     0.497120000000     0.844110000000    -0.556993   
O62      O      0.539230000000     0.501830000000     0.909220000000    -0.556895   
O63      O      0.536730000000     0.435170000000     0.877610000000    -0.558883   
O64      O      0.541770000000     0.565250000000     0.875720000000    -0.554757   
O65      O      0.935740000000     0.963390000000     0.377380000000    -0.557955   
O66      O      0.065900000000     0.962390000000     0.375780000000    -0.555329   
O67      O      0.002280000000     0.962890000000     0.409140000000    -0.556792   
O68      O      0.997960000000     0.962970000000     0.344020000000    -0.556096   
O69      O      0.004460000000     0.039400000000     0.344010000000    -0.556692   
O70      O      0.000110000000     0.039560000000     0.409130000000    -0.55702    
O71      O      0.066660000000     0.039020000000     0.377380000000    -0.558514   
O72      O      0.936510000000     0.040020000000     0.375750000000    -0.555227   
O73      O      0.936670000000     0.540040000000     0.375870000000    -0.555267   
O74      O      0.066830000000     0.539000000000     0.377430000000    -0.558785   
O75      O      0.004570000000     0.539390000000     0.344090000000    -0.556723   
O76      O      0.000390000000     0.539580000000     0.409210000000    -0.557087   
O77      O      0.002310000000     0.462900000000     0.409230000000    -0.556897   
O78      O      0.998150000000     0.462950000000     0.344110000000    -0.556313   
O79      O      0.066030000000     0.462370000000     0.375900000000    -0.55555    
O80      O      0.935880000000     0.463410000000     0.377440000000    -0.558434   
O81      O      0.504370000000     0.039410000000     0.343980000000    -0.556892   
O82      O      0.500190000000     0.039560000000     0.409100000000    -0.556809   
O83      O      0.566660000000     0.039020000000     0.377300000000    -0.558658   
O84      O      0.436500000000     0.040020000000     0.375770000000    -0.555435   
O85      O      0.435750000000     0.963390000000     0.377390000000    -0.558291   
O86      O      0.565900000000     0.962390000000     0.375700000000    -0.55532    
O87      O      0.502370000000     0.962890000000     0.409110000000    -0.556603   
O88      O      0.497870000000     0.962980000000     0.343990000000    -0.556684   
O89      O      0.500480000000     0.539590000000     0.409180000000    -0.557024   
O90      O      0.504480000000     0.539390000000     0.344060000000    -0.557034   
O91      O      0.436670000000     0.540050000000     0.375880000000    -0.555613   
O92      O      0.566830000000     0.539010000000     0.377350000000    -0.558652   
O93      O      0.566030000000     0.462370000000     0.375820000000    -0.555543   
O94      O      0.435880000000     0.463420000000     0.377450000000    -0.558773   
O95      O      0.498060000000     0.462950000000     0.344080000000    -0.55676    
O96      O      0.502390000000     0.462910000000     0.409200000000    -0.557168   
O97      O      0.000680000000     0.039720000000     0.594200000000    -0.55695    
O98      O      0.005070000000     0.039660000000     0.659310000000    -0.556804   
O99      O      0.067260000000     0.039230000000     0.625940000000    -0.558634   
O100     O      0.937110000000     0.040220000000     0.627580000000    -0.555246   
O101     O      0.936360000000     0.963580000000     0.626010000000    -0.558119   
O102     O      0.066520000000     0.962600000000     0.627550000000    -0.555185   
O103     O      0.998660000000     0.963220000000     0.659330000000    -0.55616    
O104     O      0.002830000000     0.963040000000     0.594210000000    -0.556582   
O105     O      0.000930000000     0.463200000000     0.594310000000    -0.55723    
O106     O      0.005110000000     0.463440000000     0.659430000000    -0.556663   
O107     O      0.937220000000     0.462770000000     0.627650000000    -0.555235   
O108     O      0.067380000000     0.463790000000     0.626090000000    -0.558719   
O109     O      0.066600000000     0.540430000000     0.627580000000    -0.555571   
O110     O      0.936440000000     0.539400000000     0.626090000000    -0.558491   
O111     O      0.998790000000     0.539890000000     0.659390000000    -0.556376   
O112     O      0.002810000000     0.539880000000     0.594270000000    -0.557204   
O113     O      0.498560000000     0.963210000000     0.659290000000    -0.556702   
O114     O      0.502930000000     0.963040000000     0.594180000000    -0.556873   
O115     O      0.566510000000     0.962600000000     0.627560000000    -0.555477   
O116     O      0.436360000000     0.963580000000     0.625920000000    -0.558555   
O117     O      0.437110000000     0.040210000000     0.627500000000    -0.555511   
O118     O      0.567260000000     0.039220000000     0.625950000000    -0.558689   
O119     O      0.500780000000     0.039710000000     0.594160000000    -0.557047   
O120     O      0.504970000000     0.039650000000     0.659280000000    -0.55669    
O121     O      0.437220000000     0.462760000000     0.627580000000    -0.555512   
O122     O      0.567380000000     0.463780000000     0.626090000000    -0.558795   
O123     O      0.505030000000     0.463420000000     0.659390000000    -0.557157   
O124     O      0.501010000000     0.463190000000     0.594270000000    -0.556925   
O125     O      0.502890000000     0.539870000000     0.594240000000    -0.557181   
O126     O      0.498710000000     0.539860000000     0.659360000000    -0.556873   
O127     O      0.566600000000     0.540420000000     0.627590000000    -0.555634   
O128     O      0.436450000000     0.539390000000     0.626020000000    -0.558818   
V1       V      0.042760000000     0.001830000000     0.126780000000     1.39296    
V2       V      0.959980000000     0.000570000000     0.126760000000     1.39331    
V3       V      0.959980000000     0.500550000000     0.126850000000     1.39376    
V4       V      0.042760000000     0.501850000000     0.126860000000     1.39326    
V5       V      0.459310000000     0.000530000000     0.126740000000     1.39268    
V6       V      0.542100000000     0.001790000000     0.126730000000     1.39351    
V7       V      0.542100000000     0.501810000000     0.126820000000     1.39368    
V8       V      0.459320000000     0.500510000000     0.126830000000     1.39339    
V9       V      0.042990000000     0.003510000000     0.876590000000     1.39223    
V10      V      0.960290000000     0.000040000000     0.876570000000     1.39238    
V11      V      0.043010000000     0.500010000000     0.876680000000     1.39267    
V12      V      0.960310000000     0.503530000000     0.876650000000     1.3931     
V13      V      0.542310000000     0.003340000000     0.876570000000     1.39257    
V14      V      0.459620000000     0.999880000000     0.876520000000     1.39318    
V15      V      0.459630000000     0.503370000000     0.876600000000     1.39258    
V16      V      0.542330000000     0.499850000000     0.876660000000     1.39298    
V17      V      0.000580000000     0.959810000000     0.376580000000     1.39261    
V18      V      0.001830000000     0.042600000000     0.376570000000     1.39272    
V19      V      0.002010000000     0.542600000000     0.376650000000     1.39304    
V20      V      0.000700000000     0.459810000000     0.376670000000     1.39281    
V21      V      0.501830000000     0.042600000000     0.376530000000     1.39308    
V22      V      0.500580000000     0.959810000000     0.376540000000     1.39323    
V23      V      0.502000000000     0.542610000000     0.376610000000     1.39359    
V24      V      0.500700000000     0.459810000000     0.376640000000     1.3934     
V25      V      0.002430000000     0.042810000000     0.626760000000     1.39315    
V26      V      0.001190000000     0.960010000000     0.626780000000     1.39275    
V27      V      0.002560000000     0.460200000000     0.626870000000     1.39306    
V28      V      0.001270000000     0.543000000000     0.626830000000     1.39294    
V29      V      0.501190000000     0.960010000000     0.626740000000     1.39389    
V30      V      0.502430000000     0.042800000000     0.626720000000     1.3931     
V31      V      0.502560000000     0.460190000000     0.626840000000     1.3936     
V32      V      0.501270000000     0.542990000000     0.626800000000     1.3936     


