data_structure

_audit_creation_method RASPA-1.0
_audit_creation_date 2023-5-23
_audit_author_name 'Poobodin Mano'

_cell_length_a    43.6513
_cell_length_b    43.6075
_cell_length_c    43.5813
_cell_angle_alpha 90
_cell_angle_beta  89.9999
_cell_angle_gamma 90
_cell_volume      82958.1

_symmetry_cell_setting          triclinic
_symmetry_space_group_name_Hall 'P 1'
_symmetry_space_group_name_H-M  'P 1'
_symmetry_Int_Tables_number     1

_symmetry_equiv_pos_as_xyz 'x,y,z'

loop_
_atom_site_label
_atom_site_type_symbol
_atom_site_fract_x
_atom_site_fract_y
_atom_site_fract_z
_atom_site_charge
C1       C      0.721900000000     0.338420000000     0.995870000000     0.477652   
C2       C      0.606380000000     0.336020000000     0.003490000000     0.473296   
C3       C      0.663020000000     0.395110000000     0.997520000000     0.477862   
C4       C      0.665430000000     0.279490000000     0.002220000000     0.475873   
C5       C      0.272730000000     0.329590000000     0.998400000000     0.477925   
C6       C      0.388330000000     0.327270000000     0.004510000000     0.47367    
C7       C      0.331750000000     0.386230000000     0.999480000000     0.476586   
C8       C      0.328940000000     0.270390000000     0.003650000000     0.474306   
C9       C      0.666920000000     0.728600000000     0.009080000000     0.476339   
C10      C      0.668370000000     0.613100000000     0.001230000000     0.474168   
C11      C      0.609980000000     0.669810000000     0.007320000000     0.474877   
C12      C      0.725570000000     0.671630000000     0.002870000000     0.475718   
C13      C      0.276640000000     0.664400000000     0.002610000000     0.474279   
C14      C      0.392240000000     0.660680000000     0.007300000000     0.474521   
C15      C      0.332690000000     0.604640000000     0.001590000000     0.473543   
C16      C      0.336710000000     0.720280000000     0.008560000000     0.474709   
C17      C      0.732960000000     0.994460000000     0.677010000000     0.47876    
C18      C      0.617290000000     0.989530000000     0.678760000000     0.47697    
C19      C      0.674260000000     0.992660000000     0.619940000000     0.477276   
C20      C      0.676010000000     0.991150000000     0.735910000000     0.478308   
C21      C      0.283600000000     0.001530000000     0.675810000000     0.474711   
C22      C      0.399080000000     0.993950000000     0.679010000000     0.47713    
C23      C      0.342790000000     0.002340000000     0.619810000000     0.474301   
C24      C      0.339420000000     0.993370000000     0.735300000000     0.478987   
C25      C      0.329240000000     0.008480000000     0.286360000000     0.475583   
C26      C      0.328870000000     0.011100000000     0.402200000000     0.474366   
C27      C      0.386590000000     0.007600000000     0.344570000000     0.474533   
C28      C      0.270930000000     0.012490000000     0.344020000000     0.474382   
C29      C      0.720130000000     0.000350000000     0.341410000000     0.473054   
C30      C      0.604510000000     0.002840000000     0.346350000000     0.474444   
C31      C      0.664930000000     0.998170000000     0.401690000000     0.477845   
C32      C      0.659420000000     0.005200000000     0.286070000000     0.474701   
C33      C      0.007180000000     0.668350000000     0.727190000000     0.473854   
C34      C      0.015230000000     0.675420000000     0.611650000000     0.472459   
C35      C      0.009580000000     0.614410000000     0.665820000000     0.474134   
C36      C      0.012750000000     0.730050000000     0.673130000000     0.473662   
C37      C      0.008060000000     0.280480000000     0.655300000000     0.475284   
C38      C      0.006520000000     0.396420000000     0.656100000000     0.475438   
C39      C      0.006230000000     0.338920000000     0.597640000000     0.475662   
C40      C      0.008190000000     0.338130000000     0.713610000000     0.475763   
C41      C      0.009770000000     0.678880000000     0.277280000000     0.473981   
C42      C      0.017080000000     0.672650000000     0.393040000000     0.473437   
C43      C      0.015730000000     0.617560000000     0.331710000000     0.473306   
C44      C      0.011130000000     0.733320000000     0.338230000000     0.475089   
C45      C      0.007770000000     0.339640000000     0.263510000000     0.47456    
C46      C      0.006220000000     0.343220000000     0.379360000000     0.474051   
C47      C      0.011040000000     0.399400000000     0.319920000000     0.472278   
C48      C      0.003120000000     0.283770000000     0.323490000000     0.473865   
C49      C      0.997880000000     0.342180000000     0.931010000000     0.478972   
C50      C      0.996510000000     0.331110000000     0.046320000000     0.476663   
C51      C      0.055240000000     0.335500000000     0.989330000000     0.477184   
C52      C      0.939550000000     0.337770000000     0.988110000000     0.476257   
C53      C      0.943170000000     0.673720000000     0.002490000000     0.476357   
C54      C      0.058860000000     0.671710000000     0.001670000000     0.474433   
C55      C      0.001030000000     0.679760000000     0.059660000000     0.47155    
C56      C      0.999890000000     0.665860000000     0.944600000000     0.477345   
C57      C      0.053230000000     0.010510000000     0.337090000000     0.473638   
C58      C      0.937800000000     0.006640000000     0.335740000000     0.473477   
C59      C      0.997590000000     0.950870000000     0.336700000000     0.475854   
C60      C      0.993580000000     0.066390000000     0.335800000000     0.473737   
C61      C      0.950330000000     0.004860000000     0.671040000000     0.476126   
C62      C      0.066020000000     0.005840000000     0.671140000000     0.474294   
C63      C      0.007530000000     0.062790000000     0.664150000000     0.475514   
C64      C      0.008170000000     0.947750000000     0.677790000000     0.474991   
C65      C      0.660610000000     0.007450000000     0.068580000000     0.475739   
C66      C      0.674350000000     0.001540000000     0.953660000000     0.473429   
C67      C      0.666430000000     0.946300000000     0.013850000000     0.477358   
C68      C      0.668520000000     0.061880000000     0.008360000000     0.477743   
C69      C      0.331060000000     0.992340000000     0.953100000000     0.477976   
C70      C      0.335260000000     0.997990000000     0.068830000000     0.480299   
C71      C      0.339470000000     0.937610000000     0.014330000000     0.47717    
C72      C      0.326800000000     0.052670000000     0.007640000000     0.476957   
C73      C      0.010820000000     0.116660000000     0.356460000000    -0.0173567  
C74      C      0.977120000000     0.234450000000     0.310620000000    -0.0166172  
C75      C      0.022270000000     0.233880000000     0.343290000000    -0.0161763  
C76      C      0.009780000000     0.202490000000     0.339600000000     0.00842911 
C77      C      0.985360000000     0.202550000000     0.319260000000     0.0138013  
C78      C      0.972420000000     0.175070000000     0.308700000000    -0.0673274  
C79      C      0.975910000000     0.115760000000     0.312990000000    -0.0179375  
C80      C      0.019770000000     0.175400000000     0.353730000000    -0.0642723  
C81      C      0.983790000000     0.147780000000     0.321400000000     0.013908   
C82      C      0.005330000000     0.148140000000     0.344760000000     0.00853424 
C83      C      0.984320000000     0.354580000000     0.214020000000    -0.0166247  
C84      C      0.013350000000     0.307100000000     0.095600000000    -0.0175525  
C85      C      0.978690000000     0.350720000000     0.096490000000    -0.0181354  
C86      C      0.987840000000     0.342170000000     0.127930000000     0.0152505  
C87      C      0.009150000000     0.318620000000     0.127550000000     0.00741451 
C88      C      0.024470000000     0.309700000000     0.154530000000    -0.0633279  
C89      C      0.028460000000     0.320600000000     0.213400000000    -0.016098   
C90      C      0.977860000000     0.355470000000     0.155320000000    -0.0686431  
C91      C      0.015650000000     0.324350000000     0.181910000000     0.00717149 
C92      C      0.991730000000     0.345240000000     0.182320000000     0.0149197  
C93      C      0.043950000000     0.567520000000     0.326600000000    -0.0159708  
C94      C      0.985650000000     0.450260000000     0.321910000000    -0.0160596  
C95      C      0.041210000000     0.448460000000     0.318770000000    -0.0159482  
C96      C      0.030320000000     0.480770000000     0.321120000000     0.00708467 
C97      C      0.998640000000     0.481550000000     0.322910000000     0.0140906  
C98      C      0.982590000000     0.509140000000     0.325810000000    -0.067781   
C99      C      0.988370000000     0.567780000000     0.329900000000    -0.0158833  
C100     C      0.047750000000     0.507900000000     0.322070000000    -0.0630667  
C101     C      0.999920000000     0.536090000000     0.326740000000     0.0140062  
C102     C      0.031610000000     0.535670000000     0.324890000000     0.00715092 
C103     C      0.985580000000     0.781710000000     0.354850000000    -0.0165881  
C104     C      0.018480000000     0.901990000000     0.316070000000    -0.0171611  
C105     C      0.982350000000     0.900280000000     0.358510000000    -0.0177969  
C106     C      0.991570000000     0.868840000000     0.349270000000     0.0141004  
C107     C      0.013770000000     0.869990000000     0.326560000000     0.00846894 
C108     C      0.028910000000     0.843440000000     0.316620000000    -0.064219   
C109     C      0.031690000000     0.784440000000     0.323660000000    -0.0159476  
C110     C      0.980260000000     0.840780000000     0.360180000000    -0.0673874  
C111     C      0.019020000000     0.815520000000     0.329120000000     0.00830515 
C112     C      0.994030000000     0.814090000000     0.348680000000     0.0140542  
C113     C      0.018490000000     0.704700000000     0.108230000000    -0.0177372  
C114     C      0.982540000000     0.667210000000     0.228570000000    -0.0165019  
C115     C      0.029690000000     0.696800000000     0.226620000000    -0.01598    
C116     C      0.016670000000     0.692930000000     0.195330000000     0.00768363 
C117     C      0.991000000000     0.674250000000     0.196390000000     0.0145042  
C118     C      0.977330000000     0.663160000000     0.169550000000    -0.0678988  
C119     C      0.981070000000     0.663470000000     0.110370000000    -0.0183974  
C120     C      0.027440000000     0.704990000000     0.167430000000    -0.0636634  
C121     C      0.989280000000     0.673710000000     0.141660000000     0.0148601  
C122     C      0.012240000000     0.695640000000     0.140600000000     0.00808154 
C123     C      0.033560000000     0.340460000000     0.547600000000    -0.0151803  
C124     C      0.977890000000     0.343020000000     0.429150000000    -0.0159783  
C125     C      0.033580000000     0.344080000000     0.429420000000    -0.0152364  
C126     C      0.021490000000     0.343120000000     0.461150000000     0.00802163 
C127     C      0.989740000000     0.342510000000     0.461070000000     0.0133364  
C128     C      0.972940000000     0.341290000000     0.488480000000    -0.0668199  
C129     C      0.977870000000     0.339430000000     0.547820000000    -0.0158635  
C130     C      0.038240000000     0.342520000000     0.488520000000    -0.0640156  
C131     C      0.989730000000     0.340720000000     0.515920000000     0.0133352  
C132     C      0.021480000000     0.341320000000     0.515880000000     0.0080053  
C133     C      0.016780000000     0.365340000000     0.882130000000    -0.0173258  
C134     C      0.983790000000     0.323390000000     0.762740000000    -0.0166391  
C135     C      0.030640000000     0.353530000000     0.764100000000    -0.0161925  
C136     C      0.017700000000     0.349890000000     0.795520000000     0.00767507 
C137     C      0.992200000000     0.330970000000     0.794680000000     0.0150077  
C138     C      0.977800000000     0.320990000000     0.821510000000    -0.0684697  
C139     C      0.979360000000     0.324080000000     0.880500000000    -0.0181544  
C140     C      0.027660000000     0.363160000000     0.823190000000    -0.0632912  
C141     C      0.988960000000     0.332680000000     0.849190000000     0.0153837  
C142     C      0.011850000000     0.354690000000     0.850000000000     0.00782467 
C143     C      0.988050000000     0.113560000000     0.680670000000    -0.0167881  
C144     C      0.031250000000     0.230060000000     0.640820000000    -0.0162103  
C145     C      0.984690000000     0.231240000000     0.671430000000    -0.0164317  
C146     C      0.994810000000     0.199280000000     0.666250000000     0.0145272  
C147     C      0.020030000000     0.198420000000     0.646950000000     0.00797693 
C148     C      0.031470000000     0.170460000000     0.635720000000    -0.0635892  
C149     C      0.024230000000     0.111120000000     0.638310000000    -0.0163028  
C150     C      0.982470000000     0.172500000000     0.678890000000    -0.0678832  
C151     C      0.017580000000     0.143550000000     0.646710000000     0.00796189 
C152     C      0.995260000000     0.144690000000     0.669300000000     0.0147182  
C153     C      0.989520000000     0.674890000000     0.560980000000    -0.0118578  
C154     C      0.046290000000     0.673580000000     0.442830000000    -0.0175317  
C155     C      0.990710000000     0.670500000000     0.443300000000    -0.0117507  
C156     C      0.002750000000     0.672200000000     0.474910000000     0.00531987 
C157     C      0.034450000000     0.673900000000     0.474950000000     0.0122359  
C158     C      0.050970000000     0.675810000000     0.502630000000    -0.0667109  
C159     C      0.045110000000     0.677500000000     0.562320000000    -0.0175583  
C160     C      0.985780000000     0.672470000000     0.502100000000    -0.0593203  
C161     C      0.033880000000     0.675990000000     0.530020000000     0.012234   
C162     C      0.002180000000     0.674450000000     0.529550000000     0.00537253 
C163     C      0.978690000000     0.446550000000     0.657750000000    -0.0159145  
C164     C      0.036180000000     0.564080000000     0.662220000000    -0.0153632  
C165     C      0.980500000000     0.565130000000     0.663320000000    -0.0159136  
C166     C      0.991840000000     0.533100000000     0.661340000000     0.0132743  
C167     C      0.023590000000     0.532590000000     0.660680000000     0.00816788 
C168     C      0.039910000000     0.505020000000     0.659020000000    -0.064086   
C169     C      0.034360000000     0.446110000000     0.656510000000    -0.0150742  
C170     C      0.974620000000     0.505940000000     0.660400000000    -0.0667349  
C171     C      0.022730000000     0.477940000000     0.658030000000     0.00804247 
C172     C      0.990990000000     0.478300000000     0.658720000000     0.0133174  
C173     C      0.034810000000     0.779770000000     0.692030000000    -0.01626    
C174     C      0.988960000000     0.897630000000     0.659650000000    -0.0170067  
C175     C      0.024480000000     0.898500000000     0.702590000000    -0.016511   
C176     C      0.018810000000     0.866370000000     0.692130000000     0.00735507 
C177     C      0.997010000000     0.866150000000     0.669020000000     0.015282   
C178     C      0.985670000000     0.838820000000     0.656750000000    -0.0684469  
C179     C      0.989920000000     0.780000000000     0.659030000000    -0.0165612  
C180     C      0.033250000000     0.839060000000     0.701520000000    -0.063009   
C181     C      0.998650000000     0.811600000000     0.667490000000     0.0149882  
C182     C      0.023030000000     0.811630000000     0.687860000000     0.00711618 
C183     C      0.980580000000     0.680670000000     0.776080000000    -0.0165407  
C184     C      0.015310000000     0.640110000000     0.895780000000    -0.0173973  
C185     C      0.979950000000     0.683150000000     0.894250000000    -0.0180287  
C186     C      0.987280000000     0.672670000000     0.862830000000     0.0149033  
C187     C      0.009110000000     0.649600000000     0.863540000000     0.00822539 
C188     C      0.023650000000     0.639760000000     0.836530000000    -0.0636561  
C189     C      0.026050000000     0.648500000000     0.777480000000    -0.01616    
C190     C      0.975760000000     0.684160000000     0.835150000000    -0.0678757  
C191     C      0.013330000000     0.652640000000     0.808840000000     0.00792093 
C192     C      0.988690000000     0.672670000000     0.808120000000     0.0144912  
C193     C      0.887910000000     0.022230000000     0.358150000000    -0.0159872  
C194     C      0.769900000000     0.978070000000     0.323630000000    -0.0177931  
C195     C      0.769950000000     0.022440000000     0.357410000000    -0.0172658  
C196     C      0.801650000000     0.013140000000     0.349870000000     0.00896603 
C197     C      0.801710000000     0.989160000000     0.329000000000     0.0134532  
C198     C      0.829080000000     0.979030000000     0.315370000000    -0.0668117  
C199     C      0.888150000000     0.987810000000     0.314270000000    -0.0165674  
C200     C      0.828900000000     0.025580000000     0.361280000000    -0.0646963  
C201     C      0.856340000000     0.992890000000     0.325450000000     0.0133014  
C202     C      0.856260000000     0.014100000000     0.349140000000     0.00875029 
C203     C      0.677890000000     0.028180000000     0.118710000000    -0.0174622  
C204     C      0.640010000000     0.985860000000     0.235880000000    -0.0158178  
C205     C      0.672870000000     0.030870000000     0.236920000000    -0.0165068  
C206     C      0.665440000000     0.022100000000     0.204890000000     0.010139   
C207     C      0.644990000000     0.997780000000     0.204370000000     0.0118214  
C208     C      0.632520000000     0.986960000000     0.176720000000    -0.062436   
C209     C      0.634150000000     0.993690000000     0.117390000000    -0.0111448  
C210     C      0.677790000000     0.034050000000     0.177770000000    -0.066443   
C211     C      0.643200000000     0.000570000000     0.149580000000     0.00640358 
C212     C      0.666700000000     0.021940000000     0.150140000000     0.0127601  
C213     C      0.437070000000     0.033950000000     0.345990000000    -0.0151899  
C214     C      0.554150000000     0.975950000000     0.347060000000    -0.0157106  
C215     C      0.555200000000     0.031680000000     0.347630000000    -0.0153399  
C216     C      0.523200000000     0.020270000000     0.347250000000     0.00804424 
C217     C      0.522590000000     0.988490000000     0.346790000000     0.0132997  
C218     C      0.494900000000     0.972210000000     0.345840000000    -0.0669114  
C219     C      0.435770000000     0.978240000000     0.344460000000    -0.0158638  
C220     C      0.496180000000     0.037560000000     0.347080000000    -0.0639582  
C221     C      0.467850000000     0.989520000000     0.345560000000     0.0134579  
C222     C      0.468520000000     0.021290000000     0.346290000000     0.00791376 
C223     C      0.220640000000     0.991290000000     0.360160000000    -0.0123719  
C224     C      0.103460000000     0.028820000000     0.316590000000    -0.0178167  
C225     C      0.102540000000     0.994150000000     0.360270000000    -0.0102687  
C226     C      0.134470000000     0.001620000000     0.351560000000     0.00477205 
C227     C      0.135020000000     0.023000000000     0.328040000000     0.0131972  
C228     C      0.162630000000     0.036370000000     0.318300000000    -0.0677001  
C229     C      0.221680000000     0.036110000000     0.327000000000    -0.0178307  
C230     C      0.161510000000     0.989390000000     0.363750000000    -0.0588585  
C231     C      0.189670000000     0.025550000000     0.332020000000     0.0131354  
C232     C      0.189120000000     0.001330000000     0.352610000000     0.00532042 
C233     C      0.358060000000     0.016150000000     0.118190000000    -0.0169608  
C234     C      0.314280000000     0.983880000000     0.237170000000    -0.0163884  
C235     C      0.347650000000     0.028530000000     0.236090000000    -0.0160107  
C236     C      0.343180000000     0.016100000000     0.204680000000     0.00790851 
C237     C      0.322500000000     0.991980000000     0.205230000000     0.0144307  
C238     C      0.311290000000     0.978950000000     0.178140000000    -0.067901   
C239     C      0.314200000000     0.981780000000     0.119040000000    -0.0171842  
C240     C      0.356920000000     0.025710000000     0.177180000000    -0.0637371  
C241     C      0.323590000000     0.989890000000     0.150590000000     0.014476   
C242     C      0.347200000000     0.011150000000     0.150160000000     0.00812491 
C243     C      0.342550000000     0.977760000000     0.568460000000    -0.0159243  
C244     C      0.330230000000     0.038420000000     0.452940000000    -0.0155663  
C245     C      0.331650000000     0.982720000000     0.451280000000    -0.0156826  
C246     C      0.334210000000     0.993680000000     0.483190000000     0.0141058  
C247     C      0.333380000000     0.025430000000     0.484400000000     0.00721185 
C248     C      0.335540000000     0.041080000000     0.512500000000    -0.063182   
C249     C      0.340890000000     0.033400000000     0.571530000000    -0.0154317  
C250     C      0.337340000000     0.975800000000     0.509620000000    -0.067799   
C251     C      0.338640000000     0.023100000000     0.539080000000     0.00711727 
C252     C      0.339560000000     0.991360000000     0.537540000000     0.0142328  
C253     C      0.320360000000     0.969500000000     0.783930000000    -0.0175523  
C254     C      0.353070000000     0.009480000000     0.903840000000    -0.0167556  
C255     C      0.308500000000     0.976050000000     0.902670000000    -0.0176819  
C256     C      0.320010000000     0.982070000000     0.871010000000     0.0132664  
C257     C      0.344110000000     0.002750000000     0.871920000000     0.00920627 
C258     C      0.357180000000     0.014640000000     0.845200000000    -0.0652644  
C259     C      0.355090000000     0.013040000000     0.786200000000    -0.0171035  
C260     C      0.310350000000     0.969130000000     0.843070000000    -0.0664995  
C261     C      0.346220000000     0.003200000000     0.817370000000     0.00940385 
C262     C      0.324850000000     0.979720000000     0.816240000000     0.0130669  
C263     C      0.234230000000     0.026570000000     0.690170000000    -0.0157328  
C264     C      0.115910000000     0.988830000000     0.649450000000    -0.0164435  
C265     C      0.115680000000     0.023840000000     0.692880000000    -0.0159087  
C266     C      0.147530000000     0.017030000000     0.683100000000     0.00784643 
C267     C      0.147590000000     0.995550000000     0.659660000000     0.0141341  
C268     C      0.174880000000     0.982300000000     0.649200000000    -0.067589   
C269     C      0.233700000000     0.981990000000     0.656670000000    -0.0164205  
C270     C      0.174910000000     0.029310000000     0.694650000000    -0.0638625  
C271     C      0.202170000000     0.993290000000     0.662040000000     0.0141763  
C272     C      0.202300000000     0.017440000000     0.682720000000     0.00786714 
C273     C      0.673130000000     0.021370000000     0.570520000000    -0.0164526  
C274     C      0.667990000000     0.968300000000     0.450710000000    -0.0171166  
C275     C      0.667000000000     0.024000000000     0.452440000000    -0.0161468  
C276     C      0.668960000000     0.011180000000     0.483800000000     0.00807388 
C277     C      0.669350000000     0.979410000000     0.482950000000     0.0133855  
C278     C      0.670670000000     0.962000000000     0.510000000000    -0.0669108  
C279     C      0.672910000000     0.965640000000     0.569440000000    -0.0169357  
C280     C      0.670210000000     0.027350000000     0.511530000000    -0.0642268  
C281     C      0.671780000000     0.978210000000     0.537810000000     0.0132107  
C282     C      0.671720000000     0.009990000000     0.538500000000     0.00824469 
C283     C      0.448020000000     0.963760000000     0.680570000000    -0.0171171  
C284     C      0.567550000000     0.016860000000     0.678340000000    -0.0162229  
C285     C      0.567150000000     0.961170000000     0.680600000000    -0.0173333  
C286     C      0.535290000000     0.973490000000     0.680340000000     0.0129137  
C287     C      0.535780000000     0.005250000000     0.679170000000     0.00841683 
C288     C      0.508840000000     0.022580000000     0.678750000000    -0.0646407  
C289     C      0.449900000000     0.019440000000     0.679080000000    -0.0163858  
C290     C      0.507450000000     0.957280000000     0.680920000000    -0.066371   
C291     C      0.481180000000     0.006460000000     0.679460000000     0.00853897 
C292     C      0.480340000000     0.974700000000     0.680410000000     0.0128093  
C293     C      0.782000000000     0.018850000000     0.692980000000    -0.0170275  
C294     C      0.900780000000     0.987650000000     0.648700000000    -0.0163465  
C295     C      0.900420000000     0.019740000000     0.694330000000    -0.0159049  
C296     C      0.868720000000     0.012160000000     0.684720000000     0.00849757 
C297     C      0.869030000000     0.992040000000     0.660100000000     0.0140407  
C298     C      0.842050000000     0.978110000000     0.649590000000    -0.0672907  
C299     C      0.783260000000     0.975270000000     0.658200000000    -0.0176532  
C300     C      0.841150000000     0.022920000000     0.697200000000    -0.0642429  
C301     C      0.814610000000     0.987280000000     0.663570000000     0.0141947  
C302     C      0.814030000000     0.010630000000     0.685140000000     0.0085177  
C303     C      0.692700000000     0.969860000000     0.786710000000    -0.0176882  
C304     C      0.656530000000     0.018290000000     0.902520000000    -0.0162956  
C305     C      0.699760000000     0.983260000000     0.905400000000    -0.0170388  
C306     C      0.689990000000     0.987860000000     0.872890000000     0.01312    
C307     C      0.666700000000     0.009410000000     0.871480000000     0.00932471 
C308     C      0.655200000000     0.020030000000     0.843530000000    -0.0651582  
C309     C      0.659530000000     0.014600000000     0.784880000000    -0.0170465  
C310     C      0.700290000000     0.972850000000     0.846220000000    -0.0663268  
C311     C      0.666850000000     0.006500000000     0.816940000000     0.00931944 
C312     C      0.687350000000     0.982260000000     0.818160000000     0.0129914  
C313     C      0.356560000000     0.770460000000     0.989730000000    -0.0136269  
C314     C      0.321210000000     0.887570000000     0.034360000000    -0.0175527  
C315     C      0.365320000000     0.888570000000     0.000320000000    -0.0176749  
C316     C      0.355370000000     0.856480000000     0.006330000000     0.00856499 
C317     C      0.331640000000     0.856030000000     0.027460000000     0.0128476  
C318     C      0.319670000000     0.828460000000     0.038770000000    -0.0674617  
C319     C      0.323110000000     0.769340000000     0.034330000000    -0.0174648  
C320     C      0.365480000000     0.829390000000     0.992180000000    -0.0609473  
C321     C      0.331380000000     0.801320000000     0.026270000000     0.0130919  
C322     C      0.352140000000     0.801850000000     0.002200000000     0.00666433 
C323     C      0.226060000000     0.649150000000     0.023790000000    -0.0162188  
C324     C      0.109360000000     0.691700000000     0.983650000000    -0.0166035  
C325     C      0.107970000000     0.648850000000     0.019310000000    -0.0161702  
C326     C      0.140010000000     0.657430000000     0.012120000000     0.00905038 
C327     C      0.140840000000     0.680530000000     0.990280000000     0.0127643  
C328     C      0.168620000000     0.690190000000     0.977240000000    -0.0665521  
C329     C      0.227670000000     0.681880000000     0.978650000000    -0.0165565  
C330     C      0.166900000000     0.645530000000     0.024960000000    -0.0648183  
C331     C      0.195520000000     0.676820000000     0.988760000000     0.0128255  
C332     C      0.194670000000     0.656560000000     0.013240000000     0.00912759 
C333     C      0.559920000000     0.667120000000     0.980500000000    -0.0158329  
C334     C      0.441780000000     0.661630000000     0.036310000000    -0.0157666  
C335     C      0.442400000000     0.659980000000     0.980550000000    -0.0158531  
C336     C      0.473910000000     0.661880000000     0.992780000000     0.0134155  
C337     C      0.473740000000     0.662790000000     0.024570000000     0.00802299 
C338     C      0.501100000000     0.664970000000     0.041390000000    -0.0636693  
C339     C      0.560420000000     0.668480000000     0.036260000000    -0.0154836  
C340     C      0.501180000000     0.663190000000     0.976010000000    -0.0672831  
C341     C      0.528500000000     0.666190000000     0.024550000000     0.00792778 
C342     C      0.528410000000     0.665370000000     0.992750000000     0.0134607  
C343     C      0.649370000000     0.779000000000     0.989300000000    -0.0131879  
C344     C      0.686970000000     0.896220000000     0.032500000000    -0.0174723  
C345     C      0.644100000000     0.896830000000     0.996860000000    -0.0113583  
C346     C      0.653740000000     0.864970000000     0.003480000000     0.00627125 
C347     C      0.676820000000     0.864520000000     0.025330000000     0.0129686  
C348     C      0.687610000000     0.836830000000     0.037670000000    -0.0673201  
C349     C      0.681890000000     0.777570000000     0.034590000000    -0.0173235  
C350     C      0.643040000000     0.837950000000     0.989860000000    -0.0603584  
C351     C      0.675380000000     0.809720000000     0.025420000000     0.012819   
C352     C      0.655200000000     0.810370000000     0.000870000000     0.00673537 
C353     C      0.774940000000     0.689860000000     0.980510000000    -0.0166555  
C354     C      0.893590000000     0.650570000000     0.018090000000    -0.0159839  
C355     C      0.893290000000     0.697070000000     0.987280000000    -0.0163182  
C356     C      0.861580000000     0.685910000000     0.992580000000     0.013117   
C357     C      0.861810000000     0.660700000000     0.011940000000     0.00940895 
C358     C      0.834640000000     0.648250000000     0.023570000000    -0.064767   
C359     C      0.775630000000     0.653470000000     0.022790000000    -0.0160959  
C360     C      0.834090000000     0.697300000000     0.980340000000    -0.0665821  
C361     C      0.807190000000     0.661010000000     0.012950000000     0.00933843 
C362     C      0.806890000000     0.683390000000     0.990370000000     0.0131864  
C363     C      0.331250000000     0.436130000000     0.970820000000    -0.0169743  
C364     C      0.332860000000     0.554100000000     0.027660000000    -0.015478   
C365     C      0.330850000000     0.555310000000     0.971940000000    -0.0162244  
C366     C      0.331310000000     0.523090000000     0.983310000000     0.0122857  
C367     C      0.332450000000     0.522640000000     0.015090000000     0.00896975 
C368     C      0.333190000000     0.495140000000     0.031580000000    -0.0648234  
C369     C      0.333270000000     0.436250000000     0.026550000000    -0.0162624  
C370     C      0.330840000000     0.495760000000     0.966220000000    -0.066108   
C371     C      0.332730000000     0.467960000000     0.014580000000     0.00909169 
C372     C      0.331580000000     0.468110000000     0.982800000000     0.0123327  
C373     C      0.222450000000     0.347360000000     0.018480000000    -0.0169266  
C374     C      0.105110000000     0.312970000000     0.972900000000    -0.0173867  
C375     C      0.104860000000     0.355950000000     0.008450000000    -0.0169508  
C376     C      0.136580000000     0.345200000000     0.002820000000     0.00900724 
C377     C      0.136860000000     0.322080000000     0.980990000000     0.0131985  
C378     C      0.164440000000     0.310560000000     0.969190000000    -0.0669988  
C379     C      0.223650000000     0.314900000000     0.973130000000    -0.0172474  
C380     C      0.163610000000     0.355150000000     0.017010000000    -0.0647834  
C381     C      0.191600000000     0.322010000000     0.982000000000     0.0132267  
C382     C      0.191060000000     0.342180000000     0.006580000000     0.00911521 
C383     C      0.301450000000     0.102360000000     0.020980000000    -0.0165247  
C384     C      0.343910000000     0.219920000000     0.982080000000    -0.0166646  
C385     C      0.310400000000     0.221200000000     0.026610000000    -0.0162619  
C386     C      0.315080000000     0.189090000000     0.015970000000     0.00804064 
C387     C      0.335820000000     0.188470000000     0.991890000000     0.0140319  
C388     C      0.347320000000     0.160830000000     0.980400000000    -0.067801   
C389     C      0.345330000000     0.102060000000     0.986630000000    -0.016825   
C390     C      0.301640000000     0.161970000000     0.027100000000    -0.063685   
C391     C      0.335290000000     0.133820000000     0.992810000000     0.0141905  
C392     C      0.311670000000     0.134250000000     0.014050000000     0.00825657 
C393     C      0.664290000000     0.445070000000     0.968980000000    -0.0168253  
C394     C      0.666690000000     0.562440000000     0.026830000000    -0.0162798  
C395     C      0.668910000000     0.564080000000     0.971110000000    -0.0169323  
C396     C      0.667230000000     0.531840000000     0.982170000000     0.0123459  
C397     C      0.665970000000     0.531150000000     0.013950000000     0.00927914 
C398     C      0.664140000000     0.503610000000     0.030190000000    -0.0650972  
C399     C      0.662070000000     0.444930000000     0.024720000000    -0.0160196  
C400     C      0.666760000000     0.504670000000     0.964840000000    -0.0661453  
C401     C      0.663640000000     0.476610000000     0.012960000000     0.00920119 
C402     C      0.664930000000     0.476950000000     0.981180000000     0.0123327  
C403     C      0.438030000000     0.326600000000     0.033650000000    -0.0158603  
C404     C      0.555920000000     0.335400000000     0.977470000000    -0.0160229  
C405     C      0.557100000000     0.332750000000     0.033160000000    -0.0158054  
C406     C      0.524940000000     0.331540000000     0.021690000000     0.00760226 
C407     C      0.524550000000     0.333000000000     0.989930000000     0.0135708  
C408     C      0.497180000000     0.332210000000     0.973310000000    -0.0675609  
C409     C      0.438490000000     0.328960000000     0.977940000000    -0.0159887  
C410     C      0.497600000000     0.329300000000     0.038640000000    -0.0633518  
C411     C      0.470040000000     0.329900000000     0.990140000000     0.0135844  
C412     C      0.470050000000     0.328530000000     0.021910000000     0.00762504 
C413     C      0.890430000000     0.362060000000     0.003750000000    -0.0211568  
C414     C      0.770640000000     0.321070000000     0.971730000000    -0.0170717  
C415     C      0.772530000000     0.357450000000     0.013970000000    -0.0178409  
C416     C      0.803820000000     0.350530000000     0.002660000000     0.0108356  
C417     C      0.802850000000     0.328110000000     0.980140000000     0.0121039  
C418     C      0.829760000000     0.314550000000     0.968920000000    -0.0653374  
C419     C      0.889120000000     0.315330000000     0.973350000000    -0.0164693  
C420     C      0.831580000000     0.363760000000     0.011930000000    -0.0682566  
C421     C      0.857590000000     0.326370000000     0.979820000000     0.010279   
C422     C      0.858410000000     0.351690000000     0.999020000000     0.015038   
C423     C      0.691930000000     0.112240000000     0.021630000000    -0.0158767  
C424     C      0.648130000000     0.228880000000     0.982730000000    -0.0164485  
C425     C      0.684360000000     0.230670000000     0.025090000000    -0.0160138  
C426     C      0.678170000000     0.198490000000     0.015870000000     0.00878272 
C427     C      0.655890000000     0.197540000000     0.993220000000     0.0135613  
C428     C      0.643210000000     0.169750000000     0.983360000000    -0.0670273  
C429     C      0.645550000000     0.110920000000     0.990730000000    -0.0144489  
C430     C      0.692090000000     0.171610000000     0.026720000000    -0.0644288  
C431     C      0.655700000000     0.142920000000     0.995780000000     0.0131657  
C432     C      0.680830000000     0.143760000000     0.015210000000     0.00890468 
H1       H      0.045900000000     0.235420000000     0.333920000000     0.0413853  
H2       H      0.977350000000     0.237680000000     0.285320000000     0.036858   
H3       H      0.954610000000     0.174910000000     0.291420000000     0.0422645  
H4       H      0.037940000000     0.175520000000     0.370640000000     0.0413584  
H5       H      0.035530000000     0.110550000000     0.355760000000     0.0367119  
H6       H      0.950870000000     0.111560000000     0.314800000000     0.0369605  
H7       H      0.022670000000     0.240970000000     0.367780000000     0.0365918  
H8       H      0.954070000000     0.240620000000     0.319490000000     0.0416031  
H9       H      0.983410000000     0.110440000000     0.289210000000     0.0424837  
H10      H      0.002440000000     0.114260000000     0.380420000000     0.0409179  
H11      H      0.985690000000     0.374660000000     0.091210000000     0.0436436  
H12      H      0.037830000000     0.307470000000     0.088590000000     0.0356971  
H13      H      0.042310000000     0.292480000000     0.154200000000     0.0411731  
H14      H      0.960320000000     0.373020000000     0.155590000000     0.0419392  
H15      H      0.985720000000     0.379870000000     0.216840000000     0.0372685  
H16      H      0.028460000000     0.296170000000     0.220690000000     0.0362051  
H17      H      0.953500000000     0.348710000000     0.093330000000     0.0360709  
H18      H      0.004470000000     0.283340000000     0.093290000000     0.0399052  
H19      H      0.052250000000     0.329560000000     0.214680000000     0.0402828  
H20      H      0.960890000000     0.346910000000     0.220460000000     0.0425869  
H21      H      0.056510000000     0.442410000000     0.338230000000     0.0389704  
H22      H      0.972240000000     0.445190000000     0.343000000000     0.040613   
H23      H      0.957850000000     0.509610000000     0.327380000000     0.0414751  
H24      H      0.072510000000     0.507410000000     0.320790000000     0.0407442  
H25      H      0.059280000000     0.570420000000     0.346740000000     0.0388094  
H26      H      0.973050000000     0.573930000000     0.310470000000     0.039566   
H27      H      0.053740000000     0.444530000000     0.296940000000     0.0388251  
H28      H      0.970510000000     0.447270000000     0.301630000000     0.039074   
H29      H      0.975540000000     0.570740000000     0.351730000000     0.0401126  
H30      H      0.056870000000     0.573560000000     0.305480000000     0.0388629  
H31      H      0.989250000000     0.905130000000     0.382570000000     0.0422927  
H32      H      0.042900000000     0.908960000000     0.317920000000     0.0367572  
H33      H      0.047340000000     0.844440000000     0.300040000000     0.0411824  
H34      H      0.961750000000     0.839770000000     0.376670000000     0.0423041  
H35      H      0.985250000000     0.776730000000     0.379860000000     0.036753   
H36      H      0.033020000000     0.779090000000     0.298760000000     0.0358773  
H37      H      0.957210000000     0.903660000000     0.356350000000     0.0371417  
H38      H      0.010930000000     0.904870000000     0.291880000000     0.0414611  
H39      H      0.054930000000     0.782200000000     0.333810000000     0.0410794  
H40      H      0.962710000000     0.776230000000     0.345080000000     0.041967   
H41      H      0.031590000000     0.721420000000     0.232960000000     0.0355944  
H42      H      0.960220000000     0.677890000000     0.234630000000     0.0416704  
H43      H      0.958630000000     0.646870000000     0.170310000000     0.0420348  
H44      H      0.046790000000     0.720480000000     0.166620000000     0.0410745  
H45      H      0.011350000000     0.728780000000     0.103990000000     0.0405575  
H46      H      0.986970000000     0.638900000000     0.107000000000     0.0434815  
H47      H      0.052740000000     0.686120000000     0.228300000000     0.0411732  
H48      H      0.980980000000     0.642080000000     0.232590000000     0.0368477  
H49      H      0.956210000000     0.666580000000     0.105830000000     0.0363382  
H50      H      0.043150000000     0.702270000000     0.102350000000     0.0358002  
H51      H      0.048290000000     0.323850000000     0.424550000000     0.0389864  
H52      H      0.964020000000     0.322250000000     0.424110000000     0.0399988  
H53      H      0.948150000000     0.340750000000     0.488460000000     0.0417712  
H54      H      0.063040000000     0.342920000000     0.488540000000     0.0406363  
H55      H      0.048020000000     0.319820000000     0.551380000000     0.0389201  
H56      H      0.963340000000     0.359680000000     0.553100000000     0.0396192  
H57      H      0.047150000000     0.365270000000     0.425400000000     0.0393001  
H58      H      0.963580000000     0.363670000000     0.424970000000     0.0392398  
H59      H      0.964220000000     0.318270000000     0.551740000000     0.0395564  
H60      H      0.047390000000     0.361230000000     0.552750000000     0.0394351  
H61      H      0.053570000000     0.342610000000     0.762380000000     0.0405337  
H62      H      0.983020000000     0.298190000000     0.759040000000     0.0362137  
H63      H      0.958960000000     0.304860000000     0.820890000000     0.0420347  
H64      H      0.046680000000     0.379070000000     0.823840000000     0.0414429  
H65      H      0.041170000000     0.363160000000     0.889130000000     0.0358482  
H66      H      0.954340000000     0.327480000000     0.883790000000     0.0363745  
H67      H      0.032690000000     0.378080000000     0.757560000000     0.0360985  
H68      H      0.961070000000     0.333250000000     0.756780000000     0.0428696  
H69      H      0.985000000000     0.299690000000     0.885340000000     0.04372    
H70      H      0.009570000000     0.389610000000     0.884860000000     0.0406754  
H71      H      0.983630000000     0.236820000000     0.696300000000     0.0362612  
H72      H      0.054280000000     0.233720000000     0.651030000000     0.041061   
H73      H      0.050200000000     0.169690000000     0.619470000000     0.0413203  
H74      H      0.963990000000     0.173280000000     0.695440000000     0.0419582  
H75      H      0.995010000000     0.110940000000     0.705060000000     0.04309    
H76      H      0.016620000000     0.106130000000     0.614500000000     0.0405873  
H77      H      0.961760000000     0.235280000000     0.661120000000     0.0421615  
H78      H      0.032470000000     0.234900000000     0.615810000000     0.0359262  
H79      H      0.049050000000     0.105790000000     0.640300000000     0.0357053  
H80      H      0.963190000000     0.108440000000     0.678670000000     0.0361827  
H81      H      0.975150000000     0.690080000000     0.438350000000     0.0392236  
H82      H      0.059450000000     0.694770000000     0.437610000000     0.039341   
H83      H      0.075730000000     0.677080000000     0.502830000000     0.0416755  
H84      H      0.961010000000     0.671210000000     0.501890000000     0.0395536  
H85      H      0.974580000000     0.695220000000     0.564540000000     0.0384299  
H86      H      0.060270000000     0.657770000000     0.567780000000     0.0392578  
H87      H      0.977980000000     0.648760000000     0.439510000000     0.0390951  
H88      H      0.061280000000     0.653400000000     0.438740000000     0.0389599  
H89      H      0.057900000000     0.699100000000     0.566630000000     0.0390845  
H90      H      0.975960000000     0.653830000000     0.565700000000     0.0398567  
H91      H      0.966810000000     0.568790000000     0.684510000000     0.0399393  
H92      H      0.050820000000     0.567150000000     0.682850000000     0.0389971  
H93      H      0.064700000000     0.504660000000     0.658600000000     0.0406869  
H94      H      0.949840000000     0.506290000000     0.661040000000     0.0418545  
H95      H      0.964870000000     0.441350000000     0.678530000000     0.0397337  
H96      H      0.047870000000     0.442270000000     0.635240000000     0.0392691  
H97      H      0.966150000000     0.571090000000     0.643120000000     0.0393938  
H98      H      0.049960000000     0.569500000000     0.641470000000     0.0394316  
H99      H      0.049020000000     0.440700000000     0.676660000000     0.0391606  
H100     H      0.964200000000     0.442900000000     0.637100000000     0.0393797  
H101     H      0.049190000000     0.904550000000     0.701470000000     0.0359199  
H102     H      0.995800000000     0.901900000000     0.635440000000     0.0439707  
H103     H      0.967800000000     0.838760000000     0.639520000000     0.0421362  
H104     H      0.051510000000     0.839160000000     0.718320000000     0.04128    
H105     H      0.058400000000     0.777470000000     0.682740000000     0.0404815  
H106     H      0.966540000000     0.774510000000     0.667540000000     0.0423585  
H107     H      0.016250000000     0.901880000000     0.726470000000     0.040288   
H108     H      0.963950000000     0.901850000000     0.661900000000     0.036404   
H109     H      0.990450000000     0.776620000000     0.633760000000     0.0376195  
H110     H      0.034950000000     0.772970000000     0.716600000000     0.0363388  
H111     H      0.955030000000     0.681170000000     0.899090000000     0.0365208  
H112     H      0.006970000000     0.616420000000     0.900040000000     0.0407497  
H113     H      0.042240000000     0.623350000000     0.837070000000     0.0414704  
H114     H      0.957990000000     0.701470000000     0.834670000000     0.0423756  
H115     H      0.957720000000     0.671310000000     0.769900000000     0.0417369  
H116     H      0.049670000000     0.657890000000     0.775890000000     0.0413426  
H117     H      0.987010000000     0.707410000000     0.897620000000     0.0437017  
H118     H      0.040140000000     0.641230000000     0.901350000000     0.0360174  
H119     H      0.026530000000     0.623920000000     0.770770000000     0.0366191  
H120     H      0.980390000000     0.705900000000     0.772460000000     0.0372971  
H121     H      0.765220000000     0.046090000000     0.349170000000     0.0420532  
H122     H      0.763890000000     0.978400000000     0.298850000000     0.0371744  
H123     H      0.829140000000     0.961420000000     0.297870000000     0.0423728  
H124     H      0.828830000000     0.043330000000     0.378660000000     0.0413346  
H125     H      0.891820000000     0.047390000000     0.356890000000     0.03692    
H126     H      0.894510000000     0.963140000000     0.315010000000     0.037251   
H127     H      0.765680000000     0.021500000000     0.382540000000     0.0368298  
H128     H      0.766860000000     0.954380000000     0.332520000000     0.041307   
H129     H      0.890900000000     0.996290000000     0.290380000000     0.0417282  
H130     H      0.892930000000     0.014340000000     0.381880000000     0.0416784  
H131     H      0.663700000000     0.054010000000     0.242370000000     0.0411876  
H132     H      0.615320000000     0.985960000000     0.242090000000     0.0370587  
H133     H      0.615770000000     0.968670000000     0.176330000000     0.0415362  
H134     H      0.695430000000     0.051490000000     0.178130000000     0.0416328  
H135     H      0.676590000000     0.053020000000     0.113150000000     0.0360185  
H136     H      0.634830000000     0.968680000000     0.112520000000     0.0355557  
H137     H      0.697990000000     0.030800000000     0.241090000000     0.0363626  
H138     H      0.648930000000     0.962090000000     0.238180000000     0.0418344  
H139     H      0.610730000000     0.002410000000     0.112510000000     0.0387872  
H140     H      0.702000000000     0.020440000000     0.115940000000     0.0426043  
H141     H      0.559860000000     0.045380000000     0.368620000000     0.0386067  
H142     H      0.558210000000     0.961730000000     0.367830000000     0.0399786  
H143     H      0.494440000000     0.947400000000     0.345300000000     0.0417182  
H144     H      0.496650000000     0.062370000000     0.347470000000     0.0407569  
H145     H      0.432470000000     0.047640000000     0.367010000000     0.0398153  
H146     H      0.431410000000     0.964860000000     0.323190000000     0.0397466  
H147     H      0.560100000000     0.046080000000     0.327160000000     0.039537   
H148     H      0.558620000000     0.961730000000     0.326370000000     0.0393973  
H149     H      0.430420000000     0.963590000000     0.364620000000     0.0391403  
H150     H      0.433290000000     0.048740000000     0.325580000000     0.0387638  
H151     H      0.097480000000     0.002090000000     0.383970000000     0.0393785  
H152     H      0.097600000000     0.053610000000     0.317440000000     0.0366273  
H153     H      0.163060000000     0.054150000000     0.300980000000     0.0420872  
H154     H      0.161090000000     0.971470000000     0.380940000000     0.0402356  
H155     H      0.224830000000     0.991800000000     0.385310000000     0.0363752  
H156     H      0.227810000000     0.036060000000     0.302240000000     0.0364791  
H157     H      0.098090000000     0.969100000000     0.358890000000     0.0357929  
H158     H      0.100760000000     0.020570000000     0.292610000000     0.040938   
H159     H      0.225090000000     0.059600000000     0.336270000000     0.0411484  
H160     H      0.224950000000     0.967660000000     0.351610000000     0.0413724  
H161     H      0.338610000000     0.052280000000     0.237880000000     0.0409444  
H162     H      0.289090000000     0.984650000000     0.240830000000     0.0369082  
H163     H      0.293780000000     0.961370000000     0.178470000000     0.0420334  
H164     H      0.374060000000     0.043650000000     0.176810000000     0.0413694  
H165     H      0.357500000000     0.040820000000     0.111800000000     0.0360083  
H166     H      0.315570000000     0.956630000000     0.115080000000     0.0361965  
H167     H      0.372230000000     0.028580000000     0.242730000000     0.0366014  
H168     H      0.322730000000     0.960580000000     0.243120000000     0.0420283  
H169     H      0.290380000000     0.989510000000     0.114380000000     0.0427481  
H170     H      0.381760000000     0.007390000000     0.115150000000     0.0407763  
H171     H      0.310820000000     0.968390000000     0.448150000000     0.0392897  
H172     H      0.308710000000     0.051820000000     0.450610000000     0.0386352  
H173     H      0.334810000000     0.065860000000     0.513620000000     0.0407641  
H174     H      0.337960000000     0.951000000000     0.508500000000     0.0415682  
H175     H      0.322940000000     0.962360000000     0.573690000000     0.0397302  
H176     H      0.361680000000     0.047630000000     0.575240000000     0.0384882  
H177     H      0.352060000000     0.969000000000     0.444610000000     0.0407896  
H178     H      0.349920000000     0.053480000000     0.447100000000     0.0387759  
H179     H      0.320420000000     0.046910000000     0.578400000000     0.0394798  
H180     H      0.364170000000     0.964480000000     0.570590000000     0.0398042  
H181     H      0.308510000000     0.951160000000     0.908120000000     0.0365846  
H182     H      0.376640000000     0.001050000000     0.908580000000     0.0420748  
H183     H      0.375040000000     0.031840000000     0.846030000000     0.0409112  
H184     H      0.292640000000     0.951780000000     0.842250000000     0.0423378  
H185     H      0.328820000000     0.945700000000     0.780620000000     0.0410884  
H186     H      0.347630000000     0.037010000000     0.781780000000     0.0421604  
H187     H      0.284910000000     0.985140000000     0.905680000000     0.0414472  
H188     H      0.352180000000     0.034490000000     0.908690000000     0.0358654  
H189     H      0.380280000000     0.011540000000     0.782780000000     0.0364773  
H190     H      0.295860000000     0.970540000000     0.777080000000     0.0370147  
H191     H      0.110570000000     0.048760000000     0.691320000000     0.0365733  
H192     H      0.112130000000     0.996850000000     0.625550000000     0.0418029  
H193     H      0.174870000000     0.964260000000     0.632140000000     0.0422685  
H194     H      0.174900000000     0.046970000000     0.712100000000     0.0411941  
H195     H      0.239320000000     0.049950000000     0.681400000000     0.0407066  
H196     H      0.236430000000     0.958160000000     0.665290000000     0.0419371  
H197     H      0.111610000000     0.016100000000     0.716830000000     0.0410677  
H198     H      0.110760000000     0.963890000000     0.650660000000     0.0371446  
H199     H      0.239680000000     0.982480000000     0.631880000000     0.0374247  
H200     H      0.238520000000     0.026100000000     0.715310000000     0.0363036  
H201     H      0.687140000000     0.038710000000     0.447230000000     0.0388108  
H202     H      0.688720000000     0.954770000000     0.444720000000     0.0397872  
H203     H      0.670760000000     0.937190000000     0.509450000000     0.0417019  
H204     H      0.669960000000     0.052160000000     0.512090000000     0.0407224  
H205     H      0.694140000000     0.035220000000     0.574450000000     0.0393551  
H206     H      0.652380000000     0.951420000000     0.574460000000     0.0403057  
H207     H      0.645820000000     0.037850000000     0.449490000000     0.0399531  
H208     H      0.647390000000     0.953850000000     0.446760000000     0.0391763  
H209     H      0.693740000000     0.951410000000     0.572970000000     0.0389898  
H210     H      0.652790000000     0.035630000000     0.576160000000     0.0388881  
H211     H      0.571430000000     0.946120000000     0.660470000000     0.0391338  
H212     H      0.571900000000     0.030140000000     0.657010000000     0.0400036  
H213     H      0.509380000000     0.047380000000     0.677840000000     0.040531   
H214     H      0.506910000000     0.932470000000     0.681680000000     0.0417376  
H215     H      0.443100000000     0.949180000000     0.660240000000     0.0395136  
H216     H      0.445820000000     0.034180000000     0.699490000000     0.0389063  
H217     H      0.571770000000     0.947930000000     0.701880000000     0.0396501  
H218     H      0.572390000000     0.031800000000     0.698430000000     0.0387875  
H219     H      0.445930000000     0.033290000000     0.658040000000     0.0397588  
H220     H      0.442890000000     0.950410000000     0.701670000000     0.0395217  
H221     H      0.905330000000     0.010590000000     0.717620000000     0.0417437  
H222     H      0.907190000000     0.962990000000     0.648050000000     0.0359908  
H223     H      0.842400000000     0.961020000000     0.631580000000     0.0421921  
H224     H      0.840810000000     0.039870000000     0.715340000000     0.0411243  
H225     H      0.777820000000     0.017410000000     0.718100000000     0.0359091  
H226     H      0.777030000000     0.976030000000     0.633480000000     0.0369645  
H227     H      0.904410000000     0.044910000000     0.694400000000     0.0354918  
H228     H      0.903510000000     0.997470000000     0.625330000000     0.0420882  
H229     H      0.781160000000     0.951250000000     0.666470000000     0.0418324  
H230     H      0.776440000000     0.042430000000     0.685060000000     0.041523   
H231     H      0.723460000000     0.991770000000     0.909050000000     0.0413088  
H232     H      0.658310000000     0.043470000000     0.906030000000     0.036013   
H233     H      0.637930000000     0.037830000000     0.842530000000     0.0409436  
H234     H      0.717290000000     0.954810000000     0.847250000000     0.0423987  
H235     H      0.717470000000     0.969660000000     0.780800000000     0.0369342  
H236     H      0.634450000000     0.013790000000     0.780570000000     0.0365815  
H237     H      0.698670000000     0.958720000000     0.912180000000     0.036571   
H238     H      0.632400000000     0.011170000000     0.906490000000     0.0426722  
H239     H      0.668030000000     0.037970000000     0.779280000000     0.0421394  
H240     H      0.683550000000     0.946190000000     0.784540000000     0.0410331  
H241     H      0.365060000000     0.894030000000     0.975400000000     0.0371355  
H242     H      0.297240000000     0.891120000000     0.026530000000     0.0428798  
H243     H      0.301860000000     0.828160000000     0.056050000000     0.0417985  
H244     H      0.382470000000     0.829760000000     0.974100000000     0.0412013  
H245     H      0.347800000000     0.768790000000     0.965850000000     0.041135   
H246     H      0.331740000000     0.763280000000     0.057540000000     0.0415645  
H247     H      0.388740000000     0.892650000000     0.009420000000     0.0408878  
H248     H      0.322480000000     0.892490000000     0.059350000000     0.0358209  
H249     H      0.297910000000     0.765740000000     0.033750000000     0.0366137  
H250     H      0.381120000000     0.763730000000     0.989930000000     0.036633   
H251     H      0.103130000000     0.650800000000     0.044270000000     0.0365699  
H252     H      0.106450000000     0.715850000000     0.991250000000     0.0414263  
H253     H      0.169270000000     0.707220000000     0.959170000000     0.042042   
H254     H      0.166260000000     0.628630000000     0.043140000000     0.0412381  
H255     H      0.230060000000     0.657960000000     0.047380000000     0.0415168  
H256     H      0.231470000000     0.672510000000     0.955250000000     0.0411919  
H257     H      0.103050000000     0.624980000000     0.011840000000     0.0412808  
H258     H      0.103940000000     0.690210000000     0.958780000000     0.0368785  
H259     H      0.233710000000     0.706640000000     0.978660000000     0.0370657  
H260     H      0.230280000000     0.624020000000     0.023600000000     0.0367984  
H261     H      0.438980000000     0.638490000000     0.967270000000     0.0399163  
H262     H      0.438000000000     0.640970000000     0.050750000000     0.0386474  
H263     H      0.501070000000     0.665740000000     0.066210000000     0.0409241  
H264     H      0.501200000000     0.662610000000     0.951170000000     0.0415218  
H265     H      0.565590000000     0.646470000000     0.966660000000     0.0402889  
H266     H      0.563800000000     0.689840000000     0.049750000000     0.038997   
H267     H      0.437150000000     0.679850000000     0.965460000000     0.0397327  
H268     H      0.436180000000     0.682360000000     0.050030000000     0.0394726  
H269     H      0.566340000000     0.648500000000     0.050940000000     0.0388804  
H270     H      0.563000000000     0.687820000000     0.965940000000     0.0393557  
H271     H      0.620190000000     0.900880000000     0.004630000000     0.0398693  
H272     H      0.685120000000     0.901220000000     0.057430000000     0.0370596  
H273     H      0.704690000000     0.836410000000     0.055670000000     0.0422041  
H274     H      0.626290000000     0.838380000000     0.971550000000     0.0407906  
H275     H      0.624500000000     0.773560000000     0.989220000000     0.0367641  
H276     H      0.706890000000     0.772690000000     0.034580000000     0.0366914  
H277     H      0.645680000000     0.902130000000     0.971960000000     0.0365117  
H278     H      0.711050000000     0.899990000000     0.025130000000     0.0416751  
H279     H      0.672560000000     0.772610000000     0.057780000000     0.0412947  
H280     H      0.658470000000     0.776170000000     0.965650000000     0.0414018  
H281     H      0.896690000000     0.720140000000     0.997580000000     0.0419716  
H282     H      0.898470000000     0.649690000000     0.043100000000     0.0356154  
H283     H      0.834840000000     0.629660000000     0.040040000000     0.0410891  
H284     H      0.833890000000     0.715970000000     0.963970000000     0.0421509  
H285     H      0.769330000000     0.714640000000     0.982500000000     0.0367466  
H286     H      0.770850000000     0.628530000000     0.020550000000     0.0363503  
H287     H      0.898800000000     0.698270000000     0.962410000000     0.0361011  
H288     H      0.897910000000     0.627540000000     0.008060000000     0.0418796  
H289     H      0.771730000000     0.660420000000     0.047010000000     0.0417805  
H290     H      0.771150000000     0.682470000000     0.956410000000     0.0414839  
H291     H      0.309610000000     0.560150000000     0.958760000000     0.0394512  
H292     H      0.312620000000     0.558310000000     0.042560000000     0.0389157  
H293     H      0.334100000000     0.494920000000     0.056400000000     0.0407449  
H294     H      0.329960000000     0.495990000000     0.941410000000     0.041678   
H295     H      0.310130000000     0.431500000000     0.957380000000     0.039688   
H296     H      0.354520000000     0.431820000000     0.039890000000     0.0397145  
H297     H      0.350960000000     0.560160000000     0.957070000000     0.039224   
H298     H      0.353990000000     0.558290000000     0.041260000000     0.0399996  
H299     H      0.313160000000     0.431730000000     0.041540000000     0.039172   
H300     H      0.351490000000     0.431600000000     0.956030000000     0.0391851  
H301     H      0.101880000000     0.380020000000     0.000630000000     0.0410948  
H302     H      0.100940000000     0.314820000000     0.947810000000     0.0367351  
H303     H      0.164750000000     0.293580000000     0.951070000000     0.0421481  
H304     H      0.163290000000     0.372030000000     0.035210000000     0.0413541  
H305     H      0.228350000000     0.372150000000     0.018820000000     0.0366949  
H306     H      0.228050000000     0.289790000000     0.973240000000     0.0370214  
H307     H      0.098720000000     0.354510000000     0.033160000000     0.0363859  
H308     H      0.100300000000     0.289060000000     0.980290000000     0.0417816  
H309     H      0.228960000000     0.324070000000     0.949940000000     0.0415949  
H310     H      0.224920000000     0.338010000000     0.042070000000     0.0413814  
H311     H      0.319290000000     0.224380000000     0.050290000000     0.0408647  
H312     H      0.369080000000     0.223710000000     0.982700000000     0.0371842  
H313     H      0.364930000000     0.160380000000     0.962920000000     0.0418139  
H314     H      0.284530000000     0.162410000000     0.045080000000     0.041257   
H315     H      0.301920000000     0.097530000000     0.046020000000     0.0355608  
H316     H      0.343910000000     0.096540000000     0.961770000000     0.0356044  
H317     H      0.285780000000     0.227700000000     0.026170000000     0.036242   
H318     H      0.335520000000     0.224510000000     0.958440000000     0.0419621  
H319     H      0.369300000000     0.098460000000     0.994450000000     0.0432835  
H320     H      0.277900000000     0.098280000000     0.012230000000     0.0401567  
H321     H      0.649070000000     0.569820000000     0.956200000000     0.0393968  
H322     H      0.645710000000     0.567270000000     0.040450000000     0.0401546  
H323     H      0.663170000000     0.503200000000     0.055010000000     0.0406961  
H324     H      0.667780000000     0.505070000000     0.940030000000     0.0417487  
H325     H      0.643910000000     0.441240000000     0.954200000000     0.0391144  
H326     H      0.681900000000     0.439730000000     0.039860000000     0.0393341  
H327     H      0.690400000000     0.568270000000     0.958090000000     0.0396375  
H328     H      0.687060000000     0.565760000000     0.041770000000     0.0389251  
H329     H      0.640570000000     0.441060000000     0.037830000000     0.0396931  
H330     H      0.685260000000     0.439890000000     0.955480000000     0.0396944  
H331     H      0.563050000000     0.311720000000     0.046270000000     0.0391393  
H332     H      0.561240000000     0.315730000000     0.962140000000     0.0394481  
H333     H      0.497020000000     0.333380000000     0.948500000000     0.0414088  
H334     H      0.497760000000     0.328260000000     0.063450000000     0.0408956  
H335     H      0.434250000000     0.305020000000     0.046670000000     0.0388393  
H336     H      0.433240000000     0.349910000000     0.964390000000     0.0405174  
H337     H      0.560820000000     0.353050000000     0.048130000000     0.0385903  
H338     H      0.558970000000     0.357040000000     0.964350000000     0.0402781  
H339     H      0.435000000000     0.308530000000     0.963080000000     0.0391526  
H340     H      0.432500000000     0.346350000000     0.048780000000     0.0388749  
H341     H      0.767160000000     0.382290000000     0.012020000000     0.0364139  
H342     H      0.765660000000     0.328380000000     0.947810000000     0.0415624  
H343     H      0.829060000000     0.295760000000     0.952700000000     0.0416484  
H344     H      0.832280000000     0.382350000000     0.028370000000     0.0419515  
H345     H      0.894240000000     0.384940000000     0.993180000000     0.0435155  
H346     H      0.892980000000     0.292280000000     0.983520000000     0.0420403  
H347     H      0.769840000000     0.350360000000     0.038310000000     0.0417903  
H348     H      0.765580000000     0.296190000000     0.973940000000     0.0365333  
H349     H      0.893660000000     0.314120000000     0.948290000000     0.0357488  
H350     H      0.896310000000     0.363370000000     0.028540000000     0.0363381  
H351     H      0.709070000000     0.236440000000     0.022970000000     0.0359191  
H352     H      0.655220000000     0.232390000000     0.958490000000     0.0417862  
H353     H      0.624620000000     0.169050000000     0.966940000000     0.0418136  
H354     H      0.710610000000     0.172310000000     0.043210000000     0.0412056  
H355     H      0.714960000000     0.108450000000     0.011470000000     0.0409072  
H356     H      0.622480000000     0.106990000000     0.000800000000     0.0406881  
H357     H      0.676970000000     0.234870000000     0.049130000000     0.0411661  
H358     H      0.623170000000     0.233500000000     0.984730000000     0.0369322  
H359     H      0.644790000000     0.105150000000     0.965900000000     0.0354279  
H360     H      0.693100000000     0.107610000000     0.046690000000     0.0355846  
N1       N      0.992890000000     0.097480000000     0.335510000000    -0.179716   
N2       N      0.001010000000     0.252810000000     0.325450000000    -0.181585   
N3       N      0.007710000000     0.339060000000     0.232390000000    -0.181601   
N4       N      0.994960000000     0.328510000000     0.077280000000    -0.180189   
N5       N      0.016290000000     0.586440000000     0.329660000000    -0.181309   
N6       N      0.012730000000     0.430540000000     0.319690000000    -0.181093   
N7       N      0.009800000000     0.764360000000     0.339340000000    -0.181762   
N8       N      0.999120000000     0.919830000000     0.336930000000    -0.180089   
N9       N      0.999500000000     0.683360000000     0.090530000000    -0.178584   
N10      N      0.007550000000     0.680860000000     0.246280000000    -0.181387   
N11      N      0.005810000000     0.339390000000     0.566490000000    -0.182133   
N12      N      0.005840000000     0.343760000000     0.410500000000    -0.181884   
N13      N      0.996970000000     0.344930000000     0.900050000000    -0.180402   
N14      N      0.008320000000     0.337490000000     0.744710000000    -0.181738   
N15      N      0.006120000000     0.093630000000     0.660590000000    -0.181661   
N16      N      0.008240000000     0.249390000000     0.655880000000    -0.181655   
N17      N      0.016800000000     0.676450000000     0.580490000000    -0.181274   
N18      N      0.018310000000     0.671760000000     0.424210000000    -0.181573   
N19      N      0.006380000000     0.427560000000     0.656550000000    -0.18208    
N20      N      0.008740000000     0.583350000000     0.663870000000    -0.181836   
N21      N      0.013090000000     0.761150000000     0.674290000000    -0.181389   
N22      N      0.006330000000     0.916850000000     0.681000000000    -0.181108   
N23      N      0.004800000000     0.665960000000     0.758130000000    -0.181505   
N24      N      0.997670000000     0.662340000000     0.913770000000    -0.180015   
N25      N      0.906740000000     0.005890000000     0.335680000000    -0.181357   
N26      N      0.751200000000     0.999900000000     0.341050000000    -0.179163   
N27      N      0.657020000000     0.010370000000     0.099330000000    -0.182082   
N28      N      0.657420000000     0.007260000000     0.255090000000    -0.181752   
N29      N      0.417670000000     0.006540000000     0.344870000000    -0.181984   
N30      N      0.573430000000     0.003480000000     0.347310000000    -0.181933   
N31      N      0.239890000000     0.013680000000     0.344180000000    -0.181876   
N32      N      0.084290000000     0.011010000000     0.337690000000    -0.181934   
N33      N      0.336290000000     0.998270000000     0.099900000000    -0.181092   
N34      N      0.329880000000     0.007420000000     0.255300000000    -0.182103   
N35      N      0.342820000000     0.004530000000     0.588730000000    -0.181848   
N36      N      0.329590000000     0.011070000000     0.433360000000    -0.181751   
N37      N      0.338910000000     0.991370000000     0.766340000000    -0.180687   
N38      N      0.330310000000     0.992810000000     0.922010000000    -0.180612   
N39      N      0.252650000000     0.003480000000     0.674190000000    -0.181953   
N40      N      0.097080000000     0.006230000000     0.671120000000    -0.181871   
N41      N      0.673640000000     0.993170000000     0.588780000000    -0.180553   
N42      N      0.666490000000     0.996720000000     0.432790000000    -0.18057    
N43      N      0.430170000000     0.992280000000     0.679650000000    -0.180317   
N44      N      0.586150000000     0.988910000000     0.679240000000    -0.180244   
N45      N      0.763960000000     0.995950000000     0.676310000000    -0.180723   
N46      N      0.919290000000     0.004530000000     0.671080000000    -0.181712   
N47      N      0.675620000000     0.991170000000     0.767050000000    -0.180394   
N48      N      0.677660000000     0.001790000000     0.922710000000    -0.181101   
N49      N      0.338530000000     0.751250000000     0.010620000000    -0.181729   
N50      N      0.342720000000     0.906820000000     0.017180000000    -0.180936   
N51      N      0.245590000000     0.664920000000     0.001470000000    -0.18148    
N52      N      0.089930000000     0.670990000000     0.001640000000    -0.181622   
N53      N      0.578900000000     0.668850000000     0.008160000000    -0.181772   
N54      N      0.423330000000     0.660240000000     0.008200000000    -0.181666   
N55      N      0.665960000000     0.759590000000     0.011100000000    -0.182202   
N56      N      0.665770000000     0.915250000000     0.014680000000    -0.1825     
N57      N      0.756580000000     0.671430000000     0.001780000000    -0.181854   
N58      N      0.912140000000     0.674050000000     0.002890000000    -0.181706   
N59      N      0.332230000000     0.417380000000     0.998770000000    -0.180523   
N60      N      0.331970000000     0.573510000000     0.000240000000    -0.181301   
N61      N      0.241730000000     0.330540000000     0.996730000000    -0.180815   
N62      N      0.086280000000     0.334920000000     0.990000000000    -0.180963   
N63      N      0.323720000000     0.083440000000     0.004350000000    -0.181645   
N64      N      0.328190000000     0.239300000000     0.004520000000    -0.181399   
N65      N      0.662760000000     0.426230000000     0.996830000000    -0.180947   
N66      N      0.668330000000     0.582020000000     0.999590000000    -0.180007   
N67      N      0.419460000000     0.327190000000     0.005570000000    -0.181246   
N68      N      0.575290000000     0.335030000000     0.004920000000    -0.181247   
N69      N      0.908490000000     0.338450000000     0.988130000000    -0.179879   
N70      N      0.752880000000     0.339160000000     0.993780000000    -0.180582   
N71      N      0.668920000000     0.092880000000     0.006680000000    -0.182352   
N72      N      0.665810000000     0.248460000000     0.003480000000    -0.181997   
O1       O      0.705840000000     0.333770000000     0.971640000000    -0.556029   
O2       O      0.619250000000     0.337700000000     0.977080000000    -0.55826    
O3       O      0.663980000000     0.379710000000     0.972380000000    -0.55365    
O4       O      0.660250000000     0.292730000000     0.976470000000    -0.556774   
O5       O      0.670030000000     0.295090000000     0.026770000000    -0.555794   
O6       O      0.662490000000     0.381570000000     0.023640000000    -0.561049   
O7       O      0.622440000000     0.335090000000     0.028220000000    -0.550654   
O8       O      0.709140000000     0.342460000000     0.022080000000    -0.555989   
O9       O      0.285840000000     0.333140000000     0.024510000000    -0.556127   
O10      O      0.372610000000     0.326230000000     0.029440000000    -0.550551   
O11      O      0.332310000000     0.372580000000     0.025560000000    -0.558009   
O12      O      0.325110000000     0.285850000000     0.028440000000    -0.552532   
O13      O      0.333690000000     0.283850000000     0.977920000000    -0.556505   
O14      O      0.330630000000     0.370890000000     0.974310000000    -0.553635   
O15      O      0.375110000000     0.328620000000     0.978260000000    -0.558917   
O16      O      0.288450000000     0.325310000000     0.973880000000    -0.556753   
O17      O      0.663180000000     0.715860000000     0.982830000000    -0.556995   
O18      O      0.669500000000     0.629210000000     0.976550000000    -0.552426   
O19      O      0.623500000000     0.669660000000     0.981180000000    -0.557687   
O20      O      0.710120000000     0.676290000000     0.978230000000    -0.553722   
O21      O      0.712170000000     0.666730000000     0.028590000000    -0.558415   
O22      O      0.625360000000     0.670660000000     0.032450000000    -0.554519   
O23      O      0.667110000000     0.625890000000     0.027700000000    -0.560166   
O24      O      0.671240000000     0.712520000000     0.033370000000    -0.556334   
O25      O      0.292260000000     0.668450000000     0.977950000000    -0.552242   
O26      O      0.378770000000     0.660370000000     0.981140000000    -0.556787   
O27      O      0.332030000000     0.620600000000     0.976780000000    -0.550209   
O28      O      0.340050000000     0.707330000000     0.982340000000    -0.553413   
O29      O      0.331880000000     0.704400000000     0.032890000000    -0.556264   
O30      O      0.334130000000     0.617640000000     0.027960000000    -0.559212   
O31      O      0.376810000000     0.661690000000     0.032400000000    -0.554418   
O32      O      0.289910000000     0.659530000000     0.028410000000    -0.557431   
O33      O      0.719700000000     0.968390000000     0.673890000000    -0.55306    
O34      O      0.632740000000     0.964440000000     0.680220000000    -0.548623   
O35      O      0.673560000000     0.966800000000     0.634000000000    -0.553335   
O36      O      0.679850000000     0.965940000000     0.721130000000    -0.549561   
O37      O      0.671810000000     0.016550000000     0.721740000000    -0.563808   
O38      O      0.675470000000     0.018040000000     0.634880000000    -0.559673   
O39      O      0.630800000000     0.015570000000     0.676880000000    -0.564001   
O40      O      0.717390000000     0.019150000000     0.680690000000    -0.560743   
O41      O      0.299490000000     0.025700000000     0.681350000000    -0.554937   
O42      O      0.386250000000     0.020430000000     0.678430000000    -0.559786   
O43      O      0.341950000000     0.026780000000     0.636220000000    -0.556046   
O44      O      0.344540000000     0.019510000000     0.722870000000    -0.561918   
O45      O      0.335270000000     0.969250000000     0.718900000000    -0.552883   
O46      O      0.343200000000     0.975670000000     0.632300000000    -0.555441   
O47      O      0.382990000000     0.969260000000     0.678930000000    -0.552994   
O48      O      0.296510000000     0.975500000000     0.671380000000    -0.55592    
O49      O      0.333040000000     0.034220000000     0.300080000000    -0.553422   
O50      O      0.327760000000     0.036540000000     0.387280000000    -0.549767   
O51      O      0.373210000000     0.033750000000     0.345900000000    -0.556784   
O52      O      0.286490000000     0.037250000000     0.340500000000    -0.552263   
O53      O      0.284250000000     0.986530000000     0.347620000000    -0.557658   
O54      O      0.371050000000     0.982600000000     0.343020000000    -0.554887   
O55      O      0.329640000000     0.985300000000     0.388140000000    -0.562444   
O56      O      0.324940000000     0.983620000000     0.301530000000    -0.558877   
O57      O      0.706400000000     0.025860000000     0.346330000000    -0.559681   
O58      O      0.619570000000     0.028140000000     0.345380000000    -0.557123   
O59      O      0.662930000000     0.024520000000     0.388800000000    -0.561796   
O60      O      0.663840000000     0.029590000000     0.301970000000    -0.557255   
O61      O      0.656740000000     0.978910000000     0.298980000000    -0.55321    
O62      O      0.665570000000     0.973410000000     0.385650000000    -0.551613   
O63      O      0.618340000000     0.976880000000     0.346220000000    -0.554191   
O64      O      0.704990000000     0.975390000000     0.337470000000    -0.54997    
O65      O      0.982970000000     0.673170000000     0.711160000000    -0.556845   
O66      O      0.988810000000     0.673500000000     0.624400000000    -0.559756   
O67      O      0.984410000000     0.629600000000     0.667110000000    -0.557073   
O68      O      0.987320000000     0.716430000000     0.667630000000    -0.56064    
O69      O      0.037660000000     0.714750000000     0.676850000000    -0.548053   
O70      O      0.035610000000     0.628110000000     0.666380000000    -0.553164   
O71      O      0.039850000000     0.676030000000     0.627860000000    -0.547842   
O72      O      0.033540000000     0.665750000000     0.714430000000    -0.551788   
O73      O      0.982310000000     0.294580000000     0.656560000000    -0.558205   
O74      O      0.981070000000     0.381620000000     0.656520000000    -0.555147   
O75      O      0.980870000000     0.338270000000     0.612580000000    -0.556449   
O76      O      0.982430000000     0.337090000000     0.699540000000    -0.559887   
O77      O      0.033620000000     0.339290000000     0.698810000000    -0.553104   
O78      O      0.032080000000     0.339250000000     0.611630000000    -0.557833   
O79      O      0.032280000000     0.382300000000     0.655380000000    -0.558673   
O80      O      0.033490000000     0.295260000000     0.654130000000    -0.553936   
O81      O      0.036270000000     0.679710000000     0.290000000000    -0.551316   
O82      O      0.041840000000     0.674540000000     0.377140000000    -0.547903   
O83      O      0.040820000000     0.633010000000     0.330970000000    -0.548606   
O84      O      0.037240000000     0.720150000000     0.335150000000    -0.552954   
O85      O      0.986280000000     0.717680000000     0.339910000000    -0.558036   
O86      O      0.989740000000     0.631040000000     0.334250000000    -0.56123    
O87      O      0.990770000000     0.671890000000     0.379970000000    -0.561744   
O88      O      0.985260000000     0.676140000000     0.293340000000    -0.557934   
O89      O      0.982520000000     0.344810000000     0.277580000000    -0.559961   
O90      O      0.980830000000     0.342430000000     0.364480000000    -0.555935   
O91      O      0.984620000000     0.386630000000     0.321890000000    -0.557523   
O92      O      0.978790000000     0.299820000000     0.319430000000    -0.55438    
O93      O      0.029450000000     0.296550000000     0.326230000000    -0.554244   
O94      O      0.035620000000     0.383210000000     0.318460000000    -0.549896   
O95      O      0.032050000000     0.343290000000     0.365270000000    -0.554728   
O96      O      0.032860000000     0.335460000000     0.278360000000    -0.55033    
O97      O      0.001380000000     0.366100000000     0.947890000000    -0.555719   
O98      O      0.994290000000     0.357820000000     0.034310000000    -0.561814   
O99      O      0.041200000000     0.360760000000     0.994810000000    -0.5586     
O100     O      0.954490000000     0.363110000000     0.989220000000    -0.556302   
O101     O      0.953460000000     0.311840000000     0.987220000000    -0.554526   
O102     O      0.040400000000     0.310780000000     0.983440000000    -0.556463   
O103     O      0.999370000000     0.307030000000     0.029530000000    -0.55175    
O104     O      0.994380000000     0.315560000000     0.942920000000    -0.559708   
O105     O      0.957220000000     0.647920000000     0.004020000000    -0.556461   
O106     O      0.043960000000     0.647170000000     0.008070000000    -0.556975   
O107     O      0.997790000000     0.652820000000     0.048390000000    -0.555128   
O108     O      0.003040000000     0.642250000000     0.961990000000    -0.551868   
O109     O      0.997820000000     0.692890000000     0.955910000000    -0.557248   
O110     O      0.004720000000     0.703240000000     0.042200000000    -0.550808   
O111     O      0.044870000000     0.696850000000     0.995500000000    -0.552749   
O112     O      0.957950000000     0.699130000000     0.000790000000    -0.553443   
O113     O      0.038500000000     0.005320000000     0.362030000000    -0.557035   
O114     O      0.951930000000     0.012200000000     0.360950000000    -0.555726   
O115     O      0.991790000000     0.965330000000     0.361700000000    -0.551827   
O116     O      0.998660000000     0.052230000000     0.361130000000    -0.552275   
O117     O      0.989430000000     0.051560000000     0.310710000000    -0.551521   
O118     O      0.002220000000     0.965390000000     0.311510000000    -0.55322    
O119     O      0.952640000000     0.002090000000     0.310700000000    -0.549595   
O120     O      0.038980000000     0.014820000000     0.311660000000    -0.550501   
O121     O      0.964730000000     0.006620000000     0.696660000000    -0.554299   
O122     O      0.051510000000     0.011770000000     0.696040000000    -0.555174   
O123     O      0.004790000000     0.051480000000     0.691150000000    -0.556735   
O124     O      0.011260000000     0.965060000000     0.701490000000    -0.547903   
O125     O      0.005490000000     0.959200000000     0.650870000000    -0.560043   
O126     O      0.010840000000     0.045410000000     0.640570000000    -0.553273   
O127     O      0.051660000000     0.999530000000     0.646230000000    -0.553905   
O128     O      0.964770000000     0.003350000000     0.645420000000    -0.554507   
O129     O      0.637030000000     0.003750000000     0.051300000000    -0.554801   
O130     O      0.647510000000     0.005270000000     0.964910000000    -0.56055    
O131     O      0.641890000000     0.960960000000     0.007040000000    -0.559156   
O132     O      0.642720000000     0.047810000000     0.007410000000    -0.559693   
O133     O      0.693870000000     0.047150000000     0.010720000000    -0.554131   
O134     O      0.691580000000     0.960500000000     0.019430000000    -0.553157   
O135     O      0.697920000000     0.998760000000     0.971160000000    -0.54542    
O136     O      0.687640000000     0.009060000000     0.057220000000    -0.556274   
O137     O      0.356860000000     0.996380000000     0.966480000000    -0.562723   
O138     O      0.360060000000     0.001170000000     0.053240000000    -0.558659   
O139     O      0.363290000000     0.954690000000     0.011350000000    -0.555618   
O140     O      0.353720000000     0.041050000000     0.006590000000    -0.563297   
O141     O      0.302930000000     0.035650000000     0.010730000000    -0.552882   
O142     O      0.312500000000     0.949150000000     0.015290000000    -0.558917   
O143     O      0.309410000000     0.993750000000     0.055600000000    -0.559737   
O144     O      0.306170000000     0.989240000000     0.968590000000    -0.550547   
V1       V      0.662270000000     0.335960000000     0.972250000000     1.39405    
V2       V      0.666100000000     0.338560000000     0.027320000000     1.38784    
V3       V      0.328930000000     0.329430000000     0.029130000000     1.38238    
V4       V      0.332020000000     0.327140000000     0.973980000000     1.39611    
V5       V      0.666590000000     0.672850000000     0.977560000000     1.39184    
V6       V      0.669010000000     0.668910000000     0.032660000000     1.39488    
V7       V      0.335750000000     0.664250000000     0.977410000000     1.38539    
V8       V      0.333140000000     0.660760000000     0.032530000000     1.39474    
V9       V      0.676500000000     0.964220000000     0.677380000000     1.37176    
V10      V      0.673870000000     0.019410000000     0.678510000000     1.40934    
V11      V      0.343140000000     0.025220000000     0.679850000000     1.39575    
V12      V      0.339440000000     0.970280000000     0.675300000000     1.38723    
V13      V      0.330100000000     0.037600000000     0.343460000000     1.378      
V14      V      0.327420000000     0.982420000000     0.345030000000     1.40682    
V15      V      0.663170000000     0.029130000000     0.345650000000     1.40131    
V16      V      0.661470000000     0.974000000000     0.342010000000     1.38078    
V17      V      0.983800000000     0.673210000000     0.667510000000     1.40923    
V18      V      0.038820000000     0.671210000000     0.671480000000     1.36852    
V19      V      0.979620000000     0.337930000000     0.656240000000     1.40138    
V20      V      0.034940000000     0.338970000000     0.655020000000     1.38868    
V21      V      0.041150000000     0.676830000000     0.333270000000     1.36766    
V22      V      0.986010000000     0.674150000000     0.336940000000     1.4136     
V23      V      0.979600000000     0.343500000000     0.320850000000     1.40188    
V24      V      0.034640000000     0.339550000000     0.322000000000     1.37673    
V25      V      0.997930000000     0.364080000000     0.991600000000     1.40005    
V26      V      0.996910000000     0.309150000000     0.985710000000     1.39034    
V27      V      0.000550000000     0.645410000000     0.005730000000     1.38793    
V28      V      0.001460000000     0.700180000000     0.998490000000     1.38581    
V29      V      0.995190000000     0.008800000000     0.363750000000     1.38825    
V30      V      0.995840000000     0.008450000000     0.308820000000     1.37467    
V31      V      0.008130000000     0.008830000000     0.698490000000     1.38224    
V32      V      0.008250000000     0.001760000000     0.643650000000     1.39018    
V33      V      0.640170000000     0.004420000000     0.007570000000     1.40081    
V34      V      0.694910000000     0.003760000000     0.014760000000     1.37714    
V35      V      0.360540000000     0.998390000000     0.009500000000     1.40551    
V36      V      0.305660000000     0.991860000000     0.012470000000     1.38762    


