data_structure

_audit_creation_method RASPA-1.0
_audit_creation_date 2023-5-23
_audit_author_name 'Poobodin Mano'

_cell_length_a    29.1556
_cell_length_b    29.1557
_cell_length_c    29.1153
_cell_angle_alpha 90
_cell_angle_beta  89.9999
_cell_angle_gamma 90
_cell_volume      24749.5

_symmetry_cell_setting          triclinic
_symmetry_space_group_name_Hall 'P 1'
_symmetry_space_group_name_H-M  'P 1'
_symmetry_Int_Tables_number     1

_symmetry_equiv_pos_as_xyz 'x,y,z'

loop_
_atom_site_label
_atom_site_type_symbol
_atom_site_fract_x
_atom_site_fract_y
_atom_site_fract_z
_atom_site_charge
C1       C      0.001470000000     0.001360000000     0.589100000000     0.477013   
C2       C      0.001470000000     0.001350000000     0.415500000000     0.476957   
C3       C      0.002750000000     0.914620000000     0.502310000000     0.476327   
C4       C      0.000190000000     0.088090000000     0.502290000000     0.476242   
C5       C      0.001440000000     0.501350000000     0.588950000000     0.477691   
C6       C      0.001430000000     0.501370000000     0.415350000000     0.477523   
C7       C      0.000090000000     0.588090000000     0.502160000000     0.476487   
C8       C      0.002790000000     0.414630000000     0.502140000000     0.476617   
C9       C      0.501490000000     0.001290000000     0.588510000000     0.475642   
C10      C      0.501480000000     0.001350000000     0.415040000000     0.475675   
C11      C      0.504040000000     0.087990000000     0.501780000000     0.475551   
C12      C      0.498920000000     0.914650000000     0.501720000000     0.475339   
C13      C      0.501440000000     0.501350000000     0.588840000000     0.477714   
C14      C      0.501460000000     0.501300000000     0.415250000000     0.477911   
C15      C      0.505360000000     0.414630000000     0.502010000000     0.476272   
C16      C      0.497560000000     0.588010000000     0.501970000000     0.4763     
C17      C      0.001630000000     0.001200000000     0.915510000000     0.477189   
C18      C      0.001620000000     0.001200000000     0.089100000000     0.476961   
C19      C      0.088320000000     0.997300000000     0.002360000000     0.476679   
C20      C      0.914930000000     0.005100000000     0.002340000000     0.475721   
C21      C      0.001240000000     0.501540000000     0.915350000000     0.477364   
C22      C      0.001220000000     0.501560000000     0.088950000000     0.477433   
C23      C      0.914500000000     0.502910000000     0.002140000000     0.476496   
C24      C      0.087960000000     0.500200000000     0.002160000000     0.4765     
C25      C      0.501600000000     0.001210000000     0.915080000000     0.475691   
C26      C      0.501650000000     0.001200000000     0.088550000000     0.47572    
C27      C      0.588300000000     0.003750000000     0.001830000000     0.474735   
C28      C      0.414950000000     0.998650000000     0.001880000000     0.475648   
C29      C      0.501220000000     0.501560000000     0.915250000000     0.477789   
C30      C      0.501240000000     0.501540000000     0.088850000000     0.477781   
C31      C      0.587970000000     0.500270000000     0.002040000000     0.476501   
C32      C      0.414500000000     0.502840000000     0.002070000000     0.476552   
C33      C      0.663050000000     0.458650000000     0.002060000000    -0.0168259  
C34      C      0.839430000000     0.544570000000     0.002110000000    -0.0168397  
C35      C      0.840180000000     0.461200000000     0.002130000000    -0.016167   
C36      C      0.792470000000     0.478480000000     0.002110000000     0.0104329  
C37      C      0.791950000000     0.526020000000     0.002100000000     0.0108015  
C38      C      0.750610000000     0.550490000000     0.002080000000    -0.0656112  
C39      C      0.662270000000     0.542020000000     0.002050000000    -0.0161709  
C40      C      0.751850000000     0.452730000000     0.002100000000    -0.0656962  
C41      C      0.709980000000     0.524750000000     0.002070000000     0.0103263  
C42      C      0.710520000000     0.477210000000     0.002070000000     0.0109141  
C43      C      0.339420000000     0.544460000000     0.002110000000    -0.0168586  
C44      C      0.163030000000     0.458540000000     0.002160000000    -0.0168432  
C45      C      0.162270000000     0.541920000000     0.002170000000    -0.0162282  
C46      C      0.209990000000     0.524630000000     0.002160000000     0.0104487  
C47      C      0.210510000000     0.477100000000     0.002150000000     0.0107821  
C48      C      0.251850000000     0.452620000000     0.002130000000    -0.0656091  
C49      C      0.340190000000     0.461090000000     0.002090000000    -0.0161547  
C50      C      0.250610000000     0.550380000000     0.002150000000    -0.0657105  
C51      C      0.292470000000     0.478360000000     0.002120000000     0.0103129  
C52      C      0.291940000000     0.525900000000     0.002130000000     0.0109207  
C53      C      0.840420000000     0.048280000000     0.000830000000    -0.0164866  
C54      C      0.663580000000     0.963710000000     0.004480000000    -0.0167692  
C55      C      0.662410000000     0.046930000000     0.999580000000    -0.0148025  
C56      C      0.710380000000     0.029750000000     0.000930000000     0.00814561 
C57      C      0.710830000000     0.982280000000     0.003500000000     0.0123109  
C58      C      0.751920000000     0.957570000000     0.004740000000    -0.0668854  
C59      C      0.840020000000     0.964980000000     0.004150000000    -0.0163271  
C60      C      0.751290000000     0.055210000000     0.999920000000    -0.0634115  
C61      C      0.792640000000     0.982920000000     0.003520000000     0.0119321  
C62      C      0.792560000000     0.030410000000     0.001390000000     0.00887566 
C63      C      0.162830000000     0.954120000000     0.000870000000    -0.0167378  
C64      C      0.339670000000     0.038690000000     0.004550000000    -0.0168776  
C65      C      0.340840000000     0.955470000000     0.999640000000    -0.0151284  
C66      C      0.292870000000     0.972650000000     0.001000000000     0.00946328 
C67      C      0.292420000000     0.020120000000     0.003570000000     0.0110485  
C68      C      0.251330000000     0.044830000000     0.004810000000    -0.0662264  
C69      C      0.163240000000     0.037420000000     0.004200000000    -0.0165253  
C70      C      0.251960000000     0.947190000000     0.999970000000    -0.0641587  
C71      C      0.210610000000     0.019480000000     0.003580000000     0.0107102  
C72      C      0.210690000000     0.971990000000     0.001450000000     0.0101553  
C73      C      0.468210000000     0.476120000000     0.340670000000    -0.0169436  
C74      C      0.525780000000     0.535250000000     0.163440000000    -0.0168556  
C75      C      0.476770000000     0.467760000000     0.163420000000    -0.0168632  
C76      C      0.485950000000     0.483320000000     0.211060000000     0.0114785  
C77      C      0.516680000000     0.519600000000     0.211060000000     0.0114575  
C78      C      0.535570000000     0.536340000000     0.252050000000    -0.0657552  
C79      C      0.534670000000     0.526520000000     0.340670000000    -0.0167761  
C80      C      0.467150000000     0.466490000000     0.252050000000    -0.0658172  
C81      C      0.519220000000     0.517110000000     0.293040000000     0.0114197  
C82      C      0.483580000000     0.485630000000     0.293040000000     0.0115327  
C83      C      0.525540000000     0.535440000000     0.840670000000    -0.0168659  
C84      C      0.468360000000     0.475940000000     0.663420000000    -0.0168417  
C85      C      0.534440000000     0.526830000000     0.663430000000    -0.0168647  
C86      C      0.519060000000     0.517290000000     0.711060000000     0.0114568  
C87      C      0.483650000000     0.485570000000     0.711060000000     0.011467   
C88      C      0.467340000000     0.466320000000     0.752050000000    -0.065771   
C89      C      0.476920000000     0.467660000000     0.840670000000    -0.0169153  
C90      C      0.535290000000     0.536620000000     0.752050000000    -0.0657441  
C91      C      0.486020000000     0.483280000000     0.793040000000     0.0115047  
C92      C      0.516520000000     0.519740000000     0.793040000000     0.0114633  
C93      C      0.534930000000     0.026280000000     0.340440000000    -0.0167884  
C94      C      0.476690000000     0.967800000000     0.163160000000    -0.0169047  
C95      C      0.526590000000     0.034630000000     0.163150000000    -0.0167597  
C96      C      0.517180000000     0.019200000000     0.210800000000     0.0106959  
C97      C      0.486030000000     0.983290000000     0.210800000000     0.0120639  
C98      C      0.467000000000     0.966710000000     0.251790000000    -0.0661504  
C99      C      0.468090000000     0.976390000000     0.340430000000    -0.016938   
C100     C      0.536140000000     0.035840000000     0.251800000000    -0.0653528  
C101     C      0.483590000000     0.985720000000     0.292790000000     0.0120682  
C102     C      0.519500000000     0.016880000000     0.292800000000     0.0107114  
C103     C      0.468260000000     0.026430000000     0.663170000000    -0.0166378  
C104     C      0.526740000000     0.967970000000     0.840430000000    -0.0167845  
C105     C      0.476380000000     0.034450000000     0.840460000000    -0.0166821  
C106     C      0.485900000000     0.019120000000     0.792810000000     0.0106653  
C107     C      0.517170000000     0.983310000000     0.792790000000     0.0120033  
C108     C      0.536080000000     0.966650000000     0.751780000000    -0.0660558  
C109     C      0.534730000000     0.976070000000     0.663130000000    -0.0167891  
C110     C      0.466960000000     0.035790000000     0.751820000000    -0.0652688  
C111     C      0.519400000000     0.985590000000     0.710780000000     0.0119944  
C112     C      0.483610000000     0.016870000000     0.710800000000     0.0106379  
C113     C      0.537680000000     0.662930000000     0.500040000000    -0.0158614  
C114     C      0.455740000000     0.840550000000     0.504040000000    -0.0162284  
C115     C      0.538950000000     0.839360000000     0.499150000000    -0.016169   
C116     C      0.520390000000     0.792110000000     0.500260000000     0.0110672  
C117     C      0.472920000000     0.792570000000     0.502810000000     0.0100824  
C118     C      0.447450000000     0.751670000000     0.503960000000    -0.0650463  
C119     C      0.454380000000     0.662540000000     0.503320000000    -0.0164768  
C120     C      0.545090000000     0.751020000000     0.499160000000    -0.0660072  
C121     C      0.472250000000     0.710390000000     0.502620000000     0.0102581  
C122     C      0.519740000000     0.710300000000     0.500510000000     0.0108514  
C123     C      0.547220000000     0.162110000000     0.504130000000    -0.0162396  
C124     C      0.465240000000     0.339710000000     0.500110000000    -0.0158701  
C125     C      0.548540000000     0.340120000000     0.503400000000    -0.0165001  
C126     C      0.530680000000     0.292260000000     0.502710000000     0.0102519  
C127     C      0.483190000000     0.292340000000     0.500600000000     0.0108476  
C128     C      0.457850000000     0.251610000000     0.499250000000    -0.0660303  
C129     C      0.464000000000     0.163280000000     0.499250000000    -0.016228   
C130     C      0.555480000000     0.250990000000     0.504060000000    -0.0650145  
C131     C      0.482560000000     0.210530000000     0.500360000000     0.0110912  
C132     C      0.530030000000     0.210080000000     0.502910000000     0.0100494  
C133     C      0.976420000000     0.468030000000     0.163520000000    -0.0168136  
C134     C      0.034910000000     0.526210000000     0.340770000000    -0.0167544  
C135     C      0.967880000000     0.476580000000     0.340780000000    -0.0168413  
C136     C      0.983370000000     0.485900000000     0.293140000000     0.0118195  
C137     C      0.019350000000     0.516980000000     0.293140000000     0.0110977  
C138     C      0.035890000000     0.536040000000     0.252150000000    -0.065559   
C139     C      0.026050000000     0.535060000000     0.163530000000    -0.0168007  
C140     C      0.966750000000     0.466910000000     0.252150000000    -0.0659409  
C141     C      0.016820000000     0.519490000000     0.211160000000     0.0111098  
C142     C      0.985740000000     0.483520000000     0.211160000000     0.0118096  
C143     C      0.967910000000     0.476550000000     0.663520000000    -0.0168024  
C144     C      0.026090000000     0.535040000000     0.840770000000    -0.0168436  
C145     C      0.976450000000     0.468000000000     0.840780000000    -0.016897   
C146     C      0.985770000000     0.483490000000     0.793140000000     0.0118435  
C147     C      0.016850000000     0.519470000000     0.793140000000     0.0111421  
C148     C      0.035920000000     0.536010000000     0.752150000000    -0.0655741  
C149     C      0.034940000000     0.526180000000     0.663530000000    -0.0168013  
C150     C      0.966780000000     0.466880000000     0.752150000000    -0.0659426  
C151     C      0.019370000000     0.516950000000     0.711160000000     0.0111292  
C152     C      0.983400000000     0.485860000000     0.711160000000     0.0118075  
C153     C      0.976400000000     0.967980000000     0.163680000000    -0.016836   
C154     C      0.035230000000     0.025840000000     0.340930000000    -0.0165503  
C155     C      0.967750000000     0.976820000000     0.340920000000    -0.0168027  
C156     C      0.983380000000     0.985930000000     0.293290000000     0.0124864  
C157     C      0.019660000000     0.016660000000     0.293290000000     0.0103957  
C158     C      0.036470000000     0.035480000000     0.252300000000    -0.0651427  
C159     C      0.026800000000     0.034450000000     0.163680000000    -0.0165945  
C160     C      0.966630000000     0.967060000000     0.252300000000    -0.0663257  
C161     C      0.017310000000     0.019060000000     0.211310000000     0.010416   
C162     C      0.985840000000     0.983420000000     0.211310000000     0.0124962  
C163     C      0.976170000000     0.968180000000     0.840920000000    -0.0167544  
C164     C      0.035380000000     0.025650000000     0.663670000000    -0.0165279  
C165     C      0.967600000000     0.977040000000     0.663680000000    -0.0167695  
C166     C      0.983290000000     0.986060000000     0.711320000000     0.0124758  
C167     C      0.019760000000     0.016560000000     0.711310000000     0.0103952  
C168     C      0.036710000000     0.035250000000     0.752300000000    -0.0651129  
C169     C      0.027070000000     0.034260000000     0.840930000000    -0.0165761  
C170     C      0.966400000000     0.967310000000     0.752300000000    -0.0662793  
C171     C      0.017450000000     0.018950000000     0.793290000000     0.0104189  
C172     C      0.985730000000     0.983540000000     0.793290000000     0.0124595  
C173     C      0.041810000000     0.662400000000     0.502180000000    -0.0159196  
C174     C      0.961000000000     0.840320000000     0.502300000000    -0.0157383  
C175     C      0.044370000000     0.839540000000     0.502270000000    -0.0163221  
C176     C      0.025810000000     0.792070000000     0.502260000000     0.0105044  
C177     C      0.978270000000     0.792600000000     0.502270000000     0.0106468  
C178     C      0.952520000000     0.751990000000     0.502250000000    -0.0656886  
C179     C      0.958430000000     0.663160000000     0.502200000000    -0.0165038  
C180     C      0.050280000000     0.750730000000     0.502220000000    -0.0653875  
C181     C      0.976990000000     0.710640000000     0.502220000000     0.0110803  
C182     C      0.024530000000     0.710110000000     0.502210000000     0.0100936  
C183     C      0.044460000000     0.339560000000     0.502160000000    -0.0163136  
C184     C      0.958550000000     0.163170000000     0.502250000000    -0.0166499  
C185     C      0.041930000000     0.162400000000     0.502260000000    -0.0157886  
C186     C      0.024650000000     0.210110000000     0.502230000000     0.00991368 
C187     C      0.977110000000     0.210640000000     0.502220000000     0.011254   
C188     C      0.952630000000     0.251980000000     0.502190000000    -0.0658005  
C189     C      0.961090000000     0.340310000000     0.502140000000    -0.0157279  
C190     C      0.050390000000     0.250740000000     0.502210000000    -0.0652844  
C191     C      0.978370000000     0.292600000000     0.502170000000     0.0107356  
C192     C      0.025910000000     0.292070000000     0.502180000000     0.0103727  
H1       H      0.847180000000     0.440090000000     0.971110000000     0.0398611  
H2       H      0.846010000000     0.565760000000     0.971080000000     0.0393947  
H3       H      0.750050000000     0.587620000000     0.002070000000     0.0410435  
H4       H      0.752410000000     0.415610000000     0.002100000000     0.0412185  
H5       H      0.656490000000     0.437440000000     0.971030000000     0.0394675  
H6       H      0.655270000000     0.563120000000     0.033060000000     0.0394916  
H7       H      0.847150000000     0.440110000000     0.033160000000     0.0395757  
H8       H      0.845990000000     0.565770000000     0.033150000000     0.0391156  
H9       H      0.655290000000     0.563110000000     0.971010000000     0.039749   
H10      H      0.656460000000     0.437450000000     0.033090000000     0.0391726  
H11      H      0.155290000000     0.563020000000     0.971150000000     0.0398651  
H12      H      0.156450000000     0.437350000000     0.971120000000     0.0393587  
H13      H      0.252410000000     0.415490000000     0.002120000000     0.0410249  
H14      H      0.250050000000     0.587500000000     0.002150000000     0.0412189  
H15      H      0.345970000000     0.565670000000     0.971080000000     0.0394788  
H16      H      0.347190000000     0.439990000000     0.033100000000     0.0394832  
H17      H      0.155300000000     0.563000000000     0.033200000000     0.0395767  
H18      H      0.156470000000     0.437350000000     0.033190000000     0.0390875  
H19      H      0.347160000000     0.440000000000     0.971060000000     0.039749   
H20      H      0.346000000000     0.565650000000     0.033150000000     0.0391801  
H21      H      0.655530000000     0.066060000000     0.967290000000     0.0395626  
H22      H      0.657210000000     0.940630000000     0.974770000000     0.0392222  
H23      H      0.752200000000     0.920480000000     0.006540000000     0.0411955  
H24      H      0.751010000000     0.092280000000     0.998040000000     0.0410408  
H25      H      0.847390000000     0.068220000000     0.969070000000     0.0391464  
H26      H      0.846730000000     0.945010000000     0.035970000000     0.0394624  
H27      H      0.655090000000     0.069800000000     0.029220000000     0.0382689  
H28      H      0.657050000000     0.944370000000     0.036720000000     0.0399817  
H29      H      0.846600000000     0.942570000000     0.973970000000     0.0401311  
H30      H      0.847230000000     0.070500000000     0.031080000000     0.0391011  
H31      H      0.347730000000     0.936330000000     0.967360000000     0.0397111  
H32      H      0.346040000000     0.061780000000     0.974850000000     0.0391335  
H33      H      0.251050000000     0.081910000000     0.006610000000     0.0410072  
H34      H      0.252240000000     0.910120000000     0.998100000000     0.0412551  
H35      H      0.155870000000     0.934180000000     0.969100000000     0.0392474  
H36      H      0.156510000000     0.057390000000     0.036020000000     0.0393623  
H37      H      0.348170000000     0.932600000000     0.029290000000     0.0383792  
H38      H      0.346200000000     0.058020000000     0.036800000000     0.0398601  
H39      H      0.156660000000     0.059830000000     0.974020000000     0.040056   
H40      H      0.156010000000     0.931900000000     0.031120000000     0.0391881  
H41      H      0.439450000000     0.467770000000     0.155610000000     0.0362463  
H42      H      0.512010000000     0.570340000000     0.157750000000     0.0417271  
H43      H      0.561540000000     0.562860000000     0.252050000000     0.0419148  
H44      H      0.441180000000     0.439970000000     0.252040000000     0.0419182  
H45      H      0.432850000000     0.489140000000     0.346440000000     0.0417685  
H46      H      0.570040000000     0.513490000000     0.346340000000     0.0417128  
H47      H      0.490510000000     0.432680000000     0.157650000000     0.0417411  
H48      H      0.563080000000     0.535260000000     0.155550000000     0.036259   
H49      H      0.533910000000     0.563810000000     0.348560000000     0.0362082  
H50      H      0.469000000000     0.438820000000     0.348480000000     0.0362416  
H51      H      0.569910000000     0.514060000000     0.657750000000     0.0417413  
H52      H      0.469420000000     0.438640000000     0.655620000000     0.0362996  
H53      H      0.441540000000     0.439630000000     0.752050000000     0.0418966  
H54      H      0.561090000000     0.563310000000     0.752050000000     0.0418984  
H55      H      0.562840000000     0.535660000000     0.848540000000     0.0363118  
H56      H      0.439610000000     0.467460000000     0.848490000000     0.0363268  
H57      H      0.533400000000     0.564110000000     0.655550000000     0.0362903  
H58      H      0.432900000000     0.488690000000     0.657640000000     0.0417473  
H59      H      0.490870000000     0.432660000000     0.846440000000     0.0417913  
H60      H      0.511570000000     0.570440000000     0.846360000000     0.0417719  
H61      H      0.563900000000     0.034110000000     0.155350000000     0.0364442  
H62      H      0.489970000000     0.932520000000     0.157440000000     0.041752   
H63      H      0.440750000000     0.940460000000     0.251790000000     0.042111   
H64      H      0.562400000000     0.062090000000     0.251800000000     0.0418388  
H65      H      0.570190000000     0.013010000000     0.346220000000     0.0416434  
H66      H      0.432810000000     0.989680000000     0.346140000000     0.0418293  
H67      H      0.513330000000     0.069900000000     0.157380000000     0.0416613  
H68      H      0.439390000000     0.968300000000     0.155300000000     0.0366142  
H69      H      0.468580000000     0.939100000000     0.348290000000     0.0366102  
H70      H      0.534410000000     0.063590000000     0.348250000000     0.0364953  
H71      H      0.439070000000     0.033630000000     0.848260000000     0.0366484  
H72      H      0.513770000000     0.932600000000     0.846220000000     0.0417097  
H73      H      0.562340000000     0.940410000000     0.751760000000     0.041957   
H74      H      0.440710000000     0.062050000000     0.751830000000     0.0416907  
H75      H      0.432880000000     0.013470000000     0.657380000000     0.04153    
H76      H      0.570100000000     0.989030000000     0.657340000000     0.0417405  
H77      H      0.489350000000     0.069820000000     0.846240000000     0.0416132  
H78      H      0.564060000000     0.968790000000     0.848190000000     0.0368307  
H79      H      0.533910000000     0.938760000000     0.655330000000     0.0367719  
H80      H      0.469080000000     0.063750000000     0.655400000000     0.036647   
H81      H      0.558280000000     0.845800000000     0.466880000000     0.0398297  
H82      H      0.432890000000     0.847790000000     0.474360000000     0.0388054  
H83      H      0.410380000000     0.751950000000     0.505820000000     0.0413444  
H84      H      0.582180000000     0.750730000000     0.497370000000     0.0410456  
H85      H      0.557680000000     0.656110000000     0.468250000000     0.0393281  
H86      H      0.434440000000     0.655660000000     0.535110000000     0.0389326  
H87      H      0.562060000000     0.845810000000     0.528820000000     0.0388164  
H88      H      0.436580000000     0.847510000000     0.536290000000     0.0398674  
H89      H      0.432160000000     0.655630000000     0.473090000000     0.0391814  
H90      H      0.560070000000     0.656430000000     0.530260000000     0.0397005  
H91      H      0.570760000000     0.347010000000     0.473180000000     0.0391772  
H92      H      0.445240000000     0.346510000000     0.468330000000     0.0393272  
H93      H      0.420760000000     0.251890000000     0.497470000000     0.0410294  
H94      H      0.592560000000     0.250710000000     0.505920000000     0.0412978  
H95      H      0.570070000000     0.154870000000     0.474450000000     0.0387636  
H96      H      0.440910000000     0.156820000000     0.528920000000     0.0387974  
H97      H      0.568480000000     0.347010000000     0.535190000000     0.0389365  
H98      H      0.442860000000     0.346210000000     0.530330000000     0.0397111  
H99      H      0.444670000000     0.156840000000     0.466980000000     0.0397936  
H100     H      0.566370000000     0.155130000000     0.536390000000     0.039803   
H101     H      0.968220000000     0.439270000000     0.348610000000     0.0362804  
H102     H      0.070130000000     0.512770000000     0.346450000000     0.0417097  
H103     H      0.062140000000     0.562290000000     0.252150000000     0.0418926  
H104     H      0.940500000000     0.440650000000     0.252160000000     0.0420022  
H105     H      0.989850000000     0.432820000000     0.157770000000     0.0417969  
H106     H      0.012600000000     0.570270000000     0.157850000000     0.0416954  
H107     H      0.932670000000     0.490010000000     0.346540000000     0.0417854  
H108     H      0.034590000000     0.563510000000     0.348650000000     0.0361814  
H109     H      0.063350000000     0.534740000000     0.155640000000     0.036202   
H110     H      0.939110000000     0.468370000000     0.155700000000     0.0362539  
H111     H      0.989880000000     0.432790000000     0.846540000000     0.0418605  
H112     H      0.063380000000     0.534710000000     0.848660000000     0.0362742  
H113     H      0.062170000000     0.562260000000     0.752150000000     0.0419331  
H114     H      0.940530000000     0.440620000000     0.752150000000     0.0420368  
H115     H      0.968250000000     0.439240000000     0.655700000000     0.0362807  
H116     H      0.034620000000     0.563480000000     0.655640000000     0.0362011  
H117     H      0.939140000000     0.468350000000     0.848600000000     0.0363161  
H118     H      0.012640000000     0.570250000000     0.846450000000     0.0417502  
H119     H      0.070150000000     0.512730000000     0.657860000000     0.0417313  
H120     H      0.932700000000     0.489980000000     0.657770000000     0.0417806  
H121     H      0.967750000000     0.939520000000     0.348790000000     0.0363641  
H122     H      0.070320000000     0.012090000000     0.346680000000     0.0415926  
H123     H      0.062990000000     0.061460000000     0.252300000000     0.0416967  
H124     H      0.940110000000     0.941080000000     0.252300000000     0.0420915  
H125     H      0.989440000000     0.932620000000     0.157980000000     0.0418332  
H126     H      0.013770000000     0.069810000000     0.157930000000     0.0416249  
H127     H      0.932660000000     0.990570000000     0.346620000000     0.0418583  
H128     H      0.035220000000     0.063150000000     0.348750000000     0.0361385  
H129     H      0.064100000000     0.033670000000     0.155850000000     0.036087   
H130     H      0.939110000000     0.968750000000     0.155810000000     0.036349   
H131     H      0.932590000000     0.991010000000     0.657990000000     0.0418482  
H132     H      0.035590000000     0.062960000000     0.655860000000     0.0361592  
H133     H      0.063410000000     0.061050000000     0.752300000000     0.0416807  
H134     H      0.939700000000     0.941510000000     0.752300000000     0.042066   
H135     H      0.938880000000     0.969220000000     0.848790000000     0.036423   
H136     H      0.064370000000     0.033190000000     0.848750000000     0.0361967  
H137     H      0.967380000000     0.939740000000     0.655810000000     0.036375   
H138     H      0.070390000000     0.011700000000     0.657910000000     0.0415874  
H139     H      0.014320000000     0.069720000000     0.846680000000     0.0416537  
H140     H      0.988940000000     0.932710000000     0.846620000000     0.0418476  
H141     H      0.065560000000     0.846120000000     0.471240000000     0.0391195  
H142     H      0.939890000000     0.847330000000     0.471290000000     0.0394804  
H143     H      0.915390000000     0.752540000000     0.502260000000     0.041146   
H144     H      0.087400000000     0.750170000000     0.502210000000     0.0412202  
H145     H      0.062890000000     0.655440000000     0.471140000000     0.039524   
H146     H      0.937240000000     0.656580000000     0.533230000000     0.0390837  
H147     H      0.065580000000     0.846090000000     0.533310000000     0.0391345  
H148     H      0.939920000000     0.847290000000     0.533340000000     0.0394678  
H149     H      0.937230000000     0.656610000000     0.471170000000     0.0390885  
H150     H      0.062910000000     0.655400000000     0.533190000000     0.0395441  
H151     H      0.063020000000     0.155440000000     0.533300000000     0.0393834  
H152     H      0.937350000000     0.156620000000     0.533280000000     0.0391975  
H153     H      0.915510000000     0.252530000000     0.502180000000     0.0413129  
H154     H      0.087520000000     0.250190000000     0.502220000000     0.0410084  
H155     H      0.065650000000     0.346150000000     0.533190000000     0.0389934  
H156     H      0.940000000000     0.347270000000     0.471110000000     0.0395188  
H157     H      0.063030000000     0.155390000000     0.471250000000     0.0394069  
H158     H      0.937370000000     0.156580000000     0.471210000000     0.0391841  
H159     H      0.939980000000     0.347300000000     0.533160000000     0.0395321  
H160     H      0.065650000000     0.346120000000     0.471120000000     0.0389961  
N1       N      0.634550000000     0.500030000000     0.002040000000    -0.181468   
N2       N      0.867910000000     0.503170000000     0.002130000000    -0.181398   
N3       N      0.367910000000     0.503070000000     0.002090000000    -0.181411   
N4       N      0.134550000000     0.499940000000     0.002170000000    -0.181405   
N5       N      0.868350000000     0.006460000000     0.002470000000    -0.181434   
N6       N      0.634880000000     0.004850000000     0.001910000000    -0.181479   
N7       N      0.134900000000     0.995930000000     0.002500000000    -0.181193   
N8       N      0.368370000000     0.997550000000     0.001980000000    -0.181229   
N9       N      0.501470000000     0.501300000000     0.368710000000    -0.181298   
N10      N      0.501250000000     0.501530000000     0.135390000000    -0.181295   
N11      N      0.501210000000     0.501570000000     0.868710000000    -0.181273   
N12      N      0.501430000000     0.501350000000     0.635380000000    -0.181287   
N13      N      0.501490000000     0.001360000000     0.368490000000    -0.181132   
N14      N      0.501660000000     0.001200000000     0.135100000000    -0.18115    
N15      N      0.501490000000     0.001260000000     0.635080000000    -0.181096   
N16      N      0.501580000000     0.001210000000     0.868510000000    -0.181087   
N17      N      0.496190000000     0.634600000000     0.501780000000    -0.181321   
N18      N      0.497820000000     0.868070000000     0.501650000000    -0.181155   
N19      N      0.505140000000     0.134580000000     0.501740000000    -0.181158   
N20      N      0.506720000000     0.368050000000     0.501850000000    -0.181366   
N21      N      0.001210000000     0.501560000000     0.135490000000    -0.181328   
N22      N      0.001420000000     0.501370000000     0.368820000000    -0.181395   
N23      N      0.001440000000     0.501340000000     0.635490000000    -0.181377   
N24      N      0.001250000000     0.501540000000     0.868810000000    -0.181283   
N25      N      0.001610000000     0.001210000000     0.135640000000    -0.181441   
N26      N      0.001480000000     0.001340000000     0.368960000000    -0.181468   
N27      N      0.001640000000     0.001200000000     0.868970000000    -0.181494   
N28      N      0.001470000000     0.001370000000     0.635640000000    -0.18149    
N29      N      0.999820000000     0.634670000000     0.502180000000    -0.181325   
N30      N      0.002990000000     0.868040000000     0.502300000000    -0.18157    
N31      N      0.003060000000     0.368040000000     0.502140000000    -0.181594   
N32      N      0.999950000000     0.134670000000     0.502270000000    -0.18128    
O1       O      0.963170000000     0.999200000000     0.567490000000    -0.556326   
O2       O      0.963170000000     0.999160000000     0.437100000000    -0.55623    
O3       O      0.964110000000     0.935510000000     0.502320000000    -0.560067   
O4       O      0.962140000000     0.065690000000     0.502280000000    -0.55404    
O5       O      0.038830000000     0.067200000000     0.502300000000    -0.56062    
O6       O      0.040800000000     0.937020000000     0.502300000000    -0.553928   
O7       O      0.039770000000     0.003540000000     0.437110000000    -0.557108   
O8       O      0.039770000000     0.003520000000     0.567490000000    -0.557133   
O9       O      0.039740000000     0.503570000000     0.567350000000    -0.557079   
O10      O      0.039730000000     0.503590000000     0.436950000000    -0.557019   
O11      O      0.038740000000     0.567230000000     0.502150000000    -0.560729   
O12      O      0.040820000000     0.437050000000     0.502140000000    -0.554273   
O13      O      0.964140000000     0.435490000000     0.502140000000    -0.560746   
O14      O      0.962060000000     0.565660000000     0.502160000000    -0.554266   
O15      O      0.963130000000     0.499150000000     0.436960000000    -0.557054   
O16      O      0.963150000000     0.499130000000     0.567350000000    -0.557127   
O17      O      0.539450000000     0.995930000000     0.566860000000    -0.554942   
O18      O      0.539680000000     0.004760000000     0.436690000000    -0.55528    
O19      O      0.541640000000     0.065340000000     0.505180000000    -0.555153   
O20      O      0.537690000000     0.935340000000     0.498360000000    -0.555958   
O21      O      0.461320000000     0.937300000000     0.505140000000    -0.554803   
O22      O      0.465280000000     0.067310000000     0.498410000000    -0.556215   
O23      O      0.463300000000     0.997930000000     0.436680000000    -0.554745   
O24      O      0.463520000000     0.006660000000     0.566870000000    -0.555345   
O25      O      0.463240000000     0.497870000000     0.567230000000    -0.557152   
O26      O      0.463220000000     0.498330000000     0.436850000000    -0.557297   
O27      O      0.466160000000     0.434500000000     0.501730000000    -0.560686   
O28      O      0.460140000000     0.564600000000     0.502320000000    -0.553281   
O29      O      0.536750000000     0.568140000000     0.501700000000    -0.560922   
O30      O      0.542770000000     0.438050000000     0.502370000000    -0.55329    
O31      O      0.539710000000     0.504280000000     0.436850000000    -0.557095   
O32      O      0.539650000000     0.504800000000     0.567240000000    -0.557116   
O33      O      0.005100000000     0.039400000000     0.937110000000    -0.556796   
O34      O      0.004590000000     0.039450000000     0.067500000000    -0.556824   
O35      O      0.068450000000     0.036490000000     0.002640000000    -0.561016   
O36      O      0.938350000000     0.042510000000     0.001990000000    -0.553038   
O37      O      0.934800000000     0.965900000000     0.002630000000    -0.56045    
O38      O      0.064900000000     0.959880000000     0.002000000000    -0.553478   
O39      O      0.998650000000     0.962950000000     0.067500000000    -0.556637   
O40      O      0.998160000000     0.963000000000     0.937110000000    -0.556406   
O41      O      0.999020000000     0.463250000000     0.936960000000    -0.556852   
O42      O      0.999000000000     0.463260000000     0.067350000000    -0.556923   
O43      O      0.935360000000     0.464250000000     0.002150000000    -0.560795   
O44      O      0.065530000000     0.462170000000     0.002160000000    -0.554564   
O45      O      0.067100000000     0.538860000000     0.002160000000    -0.56066    
O46      O      0.936930000000     0.540940000000     0.002140000000    -0.554179   
O47      O      0.003440000000     0.539860000000     0.067350000000    -0.556955   
O48      O      0.003460000000     0.539850000000     0.936950000000    -0.556662   
O49      O      0.496250000000     0.039170000000     0.936730000000    -0.555204   
O50      O      0.505070000000     0.039390000000     0.066910000000    -0.555239   
O51      O      0.565650000000     0.041350000000     0.998420000000    -0.554537   
O52      O      0.435640000000     0.037410000000     0.005230000000    -0.55647    
O53      O      0.437600000000     0.961050000000     0.998450000000    -0.554747   
O54      O      0.567610000000     0.964990000000     0.005190000000    -0.555876   
O55      O      0.498220000000     0.963010000000     0.066910000000    -0.554956   
O56      O      0.506970000000     0.963240000000     0.936720000000    -0.554944   
O57      O      0.503380000000     0.539860000000     0.936860000000    -0.556921   
O58      O      0.503430000000     0.539840000000     0.067250000000    -0.557228   
O59      O      0.567070000000     0.538910000000     0.002040000000    -0.56073    
O60      O      0.436900000000     0.540880000000     0.002080000000    -0.554499   
O61      O      0.435390000000     0.464190000000     0.002050000000    -0.5607     
O62      O      0.565560000000     0.462220000000     0.002050000000    -0.554359   
O63      O      0.499050000000     0.463240000000     0.067240000000    -0.557194   
O64      O      0.499060000000     0.463260000000     0.936850000000    -0.556956   
V1       V      0.960060000000     0.000110000000     0.502300000000     1.39347    
V2       V      0.042880000000     0.002610000000     0.502300000000     1.3944     
V3       V      0.042850000000     0.502650000000     0.502150000000     1.39427    
V4       V      0.960030000000     0.500070000000     0.502150000000     1.39524    
V5       V      0.542790000000     0.000230000000     0.501770000000     1.38906    
V6       V      0.460180000000     0.002410000000     0.501780000000     1.38866    
V7       V      0.460100000000     0.498940000000     0.502040000000     1.39403    
V8       V      0.542810000000     0.503710000000     0.502050000000     1.39405    
V9       V      0.004010000000     0.042560000000     0.002300000000     1.39265    
V10      V      0.999240000000     0.959840000000     0.002310000000     1.39441    
V11      V      0.999940000000     0.460150000000     0.002150000000     1.39516    
V12      V      0.002520000000     0.542970000000     0.002150000000     1.3937     
V13      V      0.500540000000     0.042510000000     0.001820000000     1.38859    
V14      V      0.502710000000     0.959890000000     0.001810000000     1.38922    
V15      V      0.502480000000     0.542960000000     0.002060000000     1.39462    
V16      V      0.499980000000     0.460140000000     0.002050000000     1.39454    


