data_structure

_audit_creation_method RASPA-1.0
_audit_creation_date 2023-5-23
_audit_author_name 'Poobodin Mano'

_cell_length_a    29.1575
_cell_length_b    29.1575
_cell_length_c    43.7081
_cell_angle_alpha 90.0001
_cell_angle_beta  90
_cell_angle_gamma 120
_cell_volume      32180.5

_symmetry_cell_setting          triclinic
_symmetry_space_group_name_Hall 'P 1'
_symmetry_space_group_name_H-M  'P 1'
_symmetry_Int_Tables_number     1

_symmetry_equiv_pos_as_xyz 'x,y,z'

loop_
_atom_site_label
_atom_site_type_symbol
_atom_site_fract_x
_atom_site_fract_y
_atom_site_fract_z
_atom_site_charge
C1       C      0.002050000000     0.001220000000     0.277160000000     0.474875   
C2       C      0.001980000000     0.001180000000     0.392810000000     0.474909   
C3       C      0.915290000000     0.914470000000     0.334970000000     0.476465   
C4       C      0.088740000000     0.087910000000     0.335010000000     0.476577   
C5       C      0.002120000000     0.501510000000     0.276980000000     0.47599    
C6       C      0.002210000000     0.501630000000     0.392630000000     0.475745   
C7       C      0.915460000000     0.414850000000     0.334850000000     0.47647    
C8       C      0.088890000000     0.588290000000     0.334780000000     0.476433   
C9       C      0.502210000000     0.001580000000     0.277300000000     0.47573    
C10      C      0.502180000000     0.001510000000     0.392950000000     0.475708   
C11      C      0.588920000000     0.088270000000     0.335130000000     0.476582   
C12      C      0.415470000000     0.914830000000     0.335100000000     0.476384   
C13      C      0.501980000000     0.501190000000     0.277290000000     0.476572   
C14      C      0.502060000000     0.501190000000     0.392950000000     0.476511   
C15      C      0.588740000000     0.587910000000     0.335100000000     0.476478   
C16      C      0.415300000000     0.414470000000     0.335130000000     0.476418   
C17      C      0.915450000000     0.001430000000     0.001670000000     0.474288   
C18      C      0.088890000000     0.001430000000     0.001640000000     0.474254   
C19      C      0.002160000000     0.001470000000     0.943830000000     0.474272   
C20      C      0.002180000000     0.001390000000     0.059480000000     0.474486   
C21      C      0.088420000000     0.501180000000     0.001500000000     0.474588   
C22      C      0.914980000000     0.501180000000     0.001460000000     0.468859   
C23      C      0.001660000000     0.501180000000     0.059300000000     0.475314   
C24      C      0.001750000000     0.501200000000     0.943650000000     0.47475    
C25      C      0.588880000000     0.001420000000     0.001800000000     0.47414    
C26      C      0.415440000000     0.001420000000     0.001780000000     0.47412    
C27      C      0.502140000000     0.001360000000     0.943960000000     0.475006   
C28      C      0.502180000000     0.001470000000     0.059620000000     0.475394   
C29      C      0.414960000000     0.501150000000     0.001780000000     0.474994   
C30      C      0.588400000000     0.501150000000     0.001780000000     0.474902   
C31      C      0.501690000000     0.501140000000     0.059610000000     0.476147   
C32      C      0.501680000000     0.501150000000     0.943960000000     0.476037   
C33      C      0.002070000000     0.001610000000     0.726140000000     0.474962   
C34      C      0.002070000000     0.001530000000     0.610490000000     0.474912   
C35      C      0.002070000000     0.914850000000     0.668350000000     0.475665   
C36      C      0.002070000000     0.088300000000     0.668290000000     0.4757     
C37      C      0.002000000000     0.501480000000     0.725970000000     0.475771   
C38      C      0.002130000000     0.501660000000     0.610310000000     0.475711   
C39      C      0.002070000000     0.588300000000     0.668180000000     0.475463   
C40      C      0.002070000000     0.414850000000     0.668110000000     0.475577   
C41      C      0.502070000000     0.001080000000     0.726280000000     0.475964   
C42      C      0.502030000000     0.001070000000     0.610630000000     0.475955   
C43      C      0.502050000000     0.087790000000     0.668460000000     0.476351   
C44      C      0.502050000000     0.914350000000     0.668460000000     0.476367   
C45      C      0.501980000000     0.501040000000     0.726280000000     0.476542   
C46      C      0.502050000000     0.501070000000     0.610630000000     0.476585   
C47      C      0.502020000000     0.414330000000     0.668450000000     0.47649    
C48      C      0.502020000000     0.587770000000     0.668450000000     0.476583   
C49      C      0.550150000000     0.686520000000     0.668070000000    -0.0160449  
C50      C      0.453910000000     0.815590000000     0.668070000000    -0.0160326  
C51      C      0.550170000000     0.863720000000     0.668850000000    -0.016132   
C52      C      0.529480000000     0.805770000000     0.668570000000     0.0106146  
C53      C      0.474590000000     0.778330000000     0.668350000000     0.0105278  
C54      C      0.445590000000     0.722840000000     0.668460000000    -0.0654309  
C55      C      0.453890000000     0.638400000000     0.668850000000    -0.0161055  
C56      C      0.558470000000     0.779280000000     0.668460000000    -0.0654436  
C57      C      0.474580000000     0.696350000000     0.668570000000     0.0105631  
C58      C      0.529470000000     0.723790000000     0.668350000000     0.0105509  
C59      C      0.453910000000     0.138410000000     0.668850000000    -0.0160542  
C60      C      0.550150000000     0.363710000000     0.668850000000    -0.0161194  
C61      C      0.453890000000     0.315580000000     0.668060000000    -0.0160753  
C62      C      0.474580000000     0.278320000000     0.668350000000     0.0105093  
C63      C      0.529470000000     0.305770000000     0.668570000000     0.0105784  
C64      C      0.558470000000     0.279290000000     0.668460000000    -0.0654633  
C65      C      0.550170000000     0.186540000000     0.668070000000    -0.016068   
C66      C      0.445590000000     0.222830000000     0.668450000000    -0.0654433  
C67      C      0.529480000000     0.223800000000     0.668350000000     0.0105376  
C68      C      0.474590000000     0.196350000000     0.668570000000     0.0105177  
C69      C      0.953940000000     0.816100000000     0.667940000000    -0.0159714  
C70      C      0.050200000000     0.687050000000     0.667840000000    -0.015835   
C71      C      0.953940000000     0.638920000000     0.668600000000    -0.0158861  
C72      C      0.974620000000     0.696870000000     0.668360000000     0.0116549  
C73      C      0.029510000000     0.724310000000     0.668150000000     0.00941058 
C74      C      0.058510000000     0.779800000000     0.668290000000    -0.0647704  
C75      C      0.050200000000     0.864230000000     0.668740000000    -0.0158136  
C76      C      0.945620000000     0.723350000000     0.668270000000    -0.0660473  
C77      C      0.029510000000     0.806280000000     0.668430000000     0.00943386 
C78      C      0.974620000000     0.778840000000     0.668200000000     0.0116744  
C79      C      0.050200000000     0.364230000000     0.668510000000    -0.0157521  
C80      C      0.953940000000     0.138920000000     0.668620000000    -0.0159695  
C81      C      0.050200000000     0.187050000000     0.667860000000    -0.015759   
C82      C      0.029520000000     0.224310000000     0.668100000000     0.00934103 
C83      C      0.974630000000     0.196870000000     0.668300000000     0.0116727  
C84      C      0.945630000000     0.223360000000     0.668160000000    -0.066095   
C85      C      0.953940000000     0.316100000000     0.667700000000    -0.0160003  
C86      C      0.058510000000     0.279800000000     0.668180000000    -0.064744   
C87      C      0.974620000000     0.278840000000     0.668020000000     0.0117003  
C88      C      0.029520000000     0.306290000000     0.668250000000     0.00934852 
C89      C      0.545860000000     0.540070000000     0.776060000000    -0.0165232  
C90      C      0.462700000000     0.457230000000     0.894180000000    -0.0165241  
C91      C      0.540760000000     0.545060000000     0.894190000000    -0.0166194  
C92      C      0.524840000000     0.525540000000     0.862450000000     0.011358   
C93      C      0.478730000000     0.476690000000     0.862440000000     0.0113006  
C94      C      0.452950000000     0.452210000000     0.835110000000    -0.0654736  
C95      C      0.458020000000     0.462010000000     0.776040000000    -0.016449   
C96      C      0.550720000000     0.549970000000     0.835130000000    -0.0654865  
C97      C      0.477460000000     0.478000000000     0.807790000000     0.0111738  
C98      C      0.526310000000     0.524130000000     0.807800000000     0.0112253  
C99      C      0.458170000000     0.962100000000     0.776070000000    -0.0164211  
C100     C      0.541150000000     0.045220000000     0.894180000000    -0.0162872  
C101     C      0.463090000000     0.957380000000     0.894210000000    -0.0164621  
C102     C      0.479050000000     0.976830000000     0.862460000000     0.0124588  
C103     C      0.525170000000     0.025680000000     0.862440000000     0.0101577  
C104     C      0.550980000000     0.050100000000     0.835110000000    -0.0647683  
C105     C      0.546010000000     0.040160000000     0.776040000000    -0.0161473  
C106     C      0.453220000000     0.952330000000     0.835140000000    -0.0661258  
C107     C      0.526520000000     0.024240000000     0.807790000000     0.00997988 
C108     C      0.477670000000     0.978120000000     0.807810000000     0.012369   
C109     C      0.639030000000     0.453020000000     0.001330000000    -0.0224352  
C110     C      0.864340000000     0.549300000000     0.001100000000    -0.0229979  
C111     C      0.816220000000     0.453040000000     0.001880000000    -0.0226175  
C112     C      0.778960000000     0.473720000000     0.001650000000     0.0113235  
C113     C      0.806400000000     0.528610000000     0.001440000000     0.0115417  
C114     C      0.779900000000     0.557600000000     0.001610000000    -0.0673718  
C115     C      0.687160000000     0.549280000000     0.002120000000    -0.0224976  
C116     C      0.723470000000     0.444720000000     0.001600000000    -0.067261   
C117     C      0.724420000000     0.528600000000     0.001770000000     0.01142    
C118     C      0.696980000000     0.473710000000     0.001550000000     0.0113288  
C119     C      0.187170000000     0.549310000000     0.001950000000    -0.0224467  
C120     C      0.316210000000     0.453030000000     0.002140000000    -0.0224631  
C121     C      0.364350000000     0.549290000000     0.001360000000    -0.0224324  
C122     C      0.306400000000     0.528610000000     0.001600000000     0.0113543  
C123     C      0.278950000000     0.473720000000     0.001810000000     0.0113449  
C124     C      0.223470000000     0.444730000000     0.001650000000    -0.0672871  
C125     C      0.139040000000     0.453050000000     0.001160000000    -0.022401   
C126     C      0.279920000000     0.557610000000     0.001660000000    -0.0672936  
C127     C      0.196980000000     0.473730000000     0.001500000000     0.0113114  
C128     C      0.224430000000     0.528620000000     0.001720000000     0.0113543  
C129     C      0.962780000000     0.457320000000     0.893860000000    -0.0165019  
C130     C      0.045860000000     0.540440000000     0.775760000000    -0.0161605  
C131     C      0.958030000000     0.462370000000     0.775710000000    -0.0163223  
C132     C      0.977490000000     0.478290000000     0.807470000000     0.0123219  
C133     C      0.026330000000     0.524410000000     0.807500000000     0.0100043  
C134     C      0.050760000000     0.550200000000     0.834840000000    -0.0648033  
C135     C      0.040850000000     0.545160000000     0.893900000000    -0.016336   
C136     C      0.953000000000     0.452430000000     0.834780000000    -0.0661111  
C137     C      0.024910000000     0.525690000000     0.862150000000     0.0101561  
C138     C      0.978790000000     0.476850000000     0.862120000000     0.0124619  
C139     C      0.687640000000     0.049550000000     0.002170000000    -0.0221706  
C140     C      0.816690000000     0.953290000000     0.002090000000    -0.0224078  
C141     C      0.864820000000     0.049550000000     0.001310000000    -0.0221079  
C142     C      0.806870000000     0.028870000000     0.001620000000     0.0101952  
C143     C      0.779430000000     0.973980000000     0.001840000000     0.0125334  
C144     C      0.723950000000     0.944980000000     0.001750000000    -0.0679249  
C145     C      0.639510000000     0.953290000000     0.001400000000    -0.022347   
C146     C      0.780380000000     0.057860000000     0.001740000000    -0.0665882  
C147     C      0.697460000000     0.973970000000     0.001660000000     0.012493   
C148     C      0.724900000000     0.028870000000     0.001870000000     0.0102117  
C149     C      0.187640000000     0.049560000000     0.002040000000    -0.0221391  
C150     C      0.316690000000     0.953290000000     0.002150000000    -0.0223613  
C151     C      0.364820000000     0.049550000000     0.001360000000    -0.0220949  
C152     C      0.306880000000     0.028870000000     0.001620000000     0.01015    
C153     C      0.279430000000     0.973980000000     0.001840000000     0.012496   
C154     C      0.223940000000     0.944980000000     0.001700000000    -0.0679623  
C155     C      0.139510000000     0.953300000000     0.001260000000    -0.0223116  
C156     C      0.280390000000     0.057870000000     0.001700000000    -0.0665888  
C157     C      0.197460000000     0.973980000000     0.001570000000     0.012467   
C158     C      0.224910000000     0.028870000000     0.001780000000     0.0101651  
C159     C      0.963110000000     0.957590000000     0.894050000000    -0.0164115  
C160     C      0.045990000000     0.040650000000     0.775920000000    -0.015896   
C161     C      0.958150000000     0.962580000000     0.775920000000    -0.0163031  
C162     C      0.977660000000     0.978530000000     0.807660000000     0.0134854  
C163     C      0.026510000000     0.024650000000     0.807660000000     0.00883014 
C164     C      0.050980000000     0.050440000000     0.834990000000    -0.0640782  
C165     C      0.041170000000     0.045430000000     0.894060000000    -0.0160043  
C166     C      0.953220000000     0.952680000000     0.834980000000    -0.0667476  
C167     C      0.025180000000     0.025960000000     0.862310000000     0.00897249 
C168     C      0.979060000000     0.977120000000     0.862310000000     0.0136019  
C169     C      0.463040000000     0.506060000000     0.442720000000    -0.0164297  
C170     C      0.545980000000     0.505980000000     0.560850000000    -0.0164867  
C171     C      0.458140000000     0.496210000000     0.560860000000    -0.0164413  
C172     C      0.477640000000     0.499760000000     0.529110000000     0.0110561  
C173     C      0.526490000000     0.502480000000     0.529110000000     0.0111055  
C174     C      0.550950000000     0.501130000000     0.501780000000    -0.0655616  
C175     C      0.541100000000     0.496280000000     0.442710000000    -0.0164372  
C176     C      0.453190000000     0.501130000000     0.501790000000    -0.0655014  
C177     C      0.525130000000     0.499790000000     0.474460000000     0.0111002  
C178     C      0.479010000000     0.502520000000     0.474460000000     0.0110564  
C179     C      0.506610000000     0.545060000000     0.109390000000    -0.0164974  
C180     C      0.506810000000     0.462150000000     0.227510000000    -0.0164798  
C181     C      0.497040000000     0.540220000000     0.227530000000    -0.0164612  
C182     C      0.500510000000     0.524230000000     0.195780000000     0.0110857  
C183     C      0.503230000000     0.478110000000     0.195770000000     0.0110731  
C184     C      0.501820000000     0.452280000000     0.168440000000    -0.0655089  
C185     C      0.496840000000     0.457220000000     0.109380000000    -0.0164457  
C186     C      0.501820000000     0.550040000000     0.168460000000    -0.0655241  
C187     C      0.500410000000     0.476730000000     0.141120000000     0.0110493  
C188     C      0.503140000000     0.525570000000     0.141130000000     0.0110855  
C189     C      0.545960000000     0.006010000000     0.560860000000    -0.0168321  
C190     C      0.463130000000     0.006340000000     0.442730000000    -0.0176976  
C191     C      0.541190000000     0.996570000000     0.442710000000    -0.0141319  
C192     C      0.525180000000     0.000000000000     0.474460000000     0.00939431 
C193     C      0.479070000000     0.002730000000     0.474470000000     0.0121443  
C194     C      0.453220000000     0.001290000000     0.501800000000    -0.0671098  
C195     C      0.458120000000     0.996240000000     0.560870000000    -0.015792   
C196     C      0.550980000000     0.001290000000     0.501780000000    -0.0645757  
C197     C      0.477650000000     0.999850000000     0.529120000000     0.0128779  
C198     C      0.526490000000     0.002570000000     0.529110000000     0.00978218 
C199     C      0.507090000000     0.962530000000     0.227530000000    -0.0164478  
C200     C      0.507080000000     0.045430000000     0.109380000000    -0.0161321  
C201     C      0.497310000000     0.957600000000     0.109400000000    -0.0163247  
C202     C      0.500840000000     0.977110000000     0.141140000000     0.0122004  
C203     C      0.503570000000     0.025960000000     0.141130000000     0.00987364 
C204     C      0.502210000000     0.050430000000     0.168450000000    -0.0648466  
C205     C      0.497330000000     0.040610000000     0.227520000000    -0.0161303  
C206     C      0.502200000000     0.952670000000     0.168470000000    -0.0661607  
C207     C      0.500850000000     0.024620000000     0.195780000000     0.00988056 
C208     C      0.503570000000     0.978500000000     0.195790000000     0.0122659  
C209     C      0.958260000000     0.496820000000     0.560530000000    -0.0164351  
C210     C      0.041260000000     0.496790000000     0.442410000000    -0.0161664  
C211     C      0.963190000000     0.506560000000     0.442400000000    -0.0163621  
C212     C      0.979160000000     0.503060000000     0.474150000000     0.0122595  
C213     C      0.025280000000     0.500330000000     0.474150000000     0.00984985 
C214     C      0.051090000000     0.501700000000     0.501490000000    -0.0647847  
C215     C      0.046100000000     0.506590000000     0.560550000000    -0.0161203  
C216     C      0.953330000000     0.501700000000     0.501470000000    -0.066208   
C217     C      0.026620000000     0.503070000000     0.528810000000     0.00984841 
C218     C      0.977780000000     0.500350000000     0.528790000000     0.0122993  
C219     C      0.639540000000     0.187020000000     0.335500000000    -0.016001   
C220     C      0.864840000000     0.316100000000     0.335300000000    -0.0160461  
C221     C      0.816700000000     0.364210000000     0.334510000000    -0.0160305  
C222     C      0.779450000000     0.306270000000     0.334850000000     0.010522   
C223     C      0.806890000000     0.278830000000     0.335070000000     0.0105497  
C224     C      0.780410000000     0.223340000000     0.335010000000    -0.0654458  
C225     C      0.687670000000     0.138900000000     0.334720000000    -0.0160235  
C226     C      0.723960000000     0.279770000000     0.335010000000    -0.0654325  
C227     C      0.724930000000     0.196850000000     0.334950000000     0.0105238  
C228     C      0.697480000000     0.224290000000     0.335170000000     0.0105088  
C229     C      0.139520000000     0.687050000000     0.335190000000    -0.0161175  
C230     C      0.364840000000     0.816080000000     0.335430000000    -0.0160296  
C231     C      0.316720000000     0.864220000000     0.334650000000    -0.0161417  
C232     C      0.279450000000     0.806270000000     0.334870000000     0.0105919  
C233     C      0.306890000000     0.778820000000     0.335090000000     0.0105152  
C234     C      0.280400000000     0.723340000000     0.334920000000    -0.0654367  
C235     C      0.187650000000     0.638910000000     0.334410000000    -0.0160769  
C236     C      0.223970000000     0.779790000000     0.334920000000    -0.0654746  
C237     C      0.224910000000     0.696860000000     0.334750000000     0.0105218  
C238     C      0.197470000000     0.724300000000     0.334970000000     0.0105462  
C239     C      0.006920000000     0.462400000000     0.227220000000    -0.0173529  
C240     C      0.006570000000     0.545120000000     0.109060000000    -0.0173889  
C241     C      0.996800000000     0.457280000000     0.109080000000    -0.0143836  
C242     C      0.000400000000     0.476830000000     0.140820000000     0.0099772  
C243     C      0.003120000000     0.525670000000     0.140810000000     0.0113717  
C244     C      0.001850000000     0.550180000000     0.168130000000    -0.0653797  
C245     C      0.997140000000     0.540460000000     0.227210000000    -0.0143288  
C246     C      0.001850000000     0.452430000000     0.168150000000    -0.0653372  
C247     C      0.000570000000     0.524420000000     0.195460000000     0.0100105  
C248     C      0.003300000000     0.478300000000     0.195470000000     0.011348   
C249     C      0.962940000000     0.006090000000     0.442570000000    -0.0167972  
C250     C      0.045980000000     0.006340000000     0.560730000000    -0.0173651  
C251     C      0.958140000000     0.996570000000     0.560720000000    -0.0141336  
C252     C      0.977620000000     0.000030000000     0.528980000000     0.0105603  
C253     C      0.026460000000     0.002750000000     0.528980000000     0.0109512  
C254     C      0.050900000000     0.001330000000     0.501660000000    -0.0664324  
C255     C      0.041010000000     0.996320000000     0.442590000000    -0.0154486  
C256     C      0.953140000000     0.001330000000     0.501640000000    -0.0652105  
C257     C      0.025060000000     0.999910000000     0.474330000000     0.01167    
C258     C      0.978940000000     0.002630000000     0.474320000000     0.0109751  
C259     C      0.864670000000     0.815720000000     0.335370000000    -0.0160725  
C260     C      0.639360000000     0.686660000000     0.335480000000    -0.0160636  
C261     C      0.687490000000     0.638530000000     0.334680000000    -0.0160901  
C262     C      0.724760000000     0.696480000000     0.334940000000     0.0105629  
C263     C      0.697310000000     0.723920000000     0.335160000000     0.0105495  
C264     C      0.723800000000     0.779410000000     0.335030000000    -0.0654348  
C265     C      0.816540000000     0.863840000000     0.334590000000    -0.0160662  
C266     C      0.780240000000     0.722970000000     0.335020000000    -0.0654438  
C267     C      0.779280000000     0.805900000000     0.334900000000     0.0105837  
C268     C      0.806730000000     0.778450000000     0.335110000000     0.0105819  
C269     C      0.187490000000     0.138540000000     0.334640000000    -0.0160314  
C270     C      0.316540000000     0.363850000000     0.334740000000    -0.0160917  
C271     C      0.364670000000     0.315710000000     0.335510000000    -0.0161097  
C272     C      0.306720000000     0.278450000000     0.335210000000     0.0105345  
C273     C      0.279280000000     0.305900000000     0.335000000000     0.0105121  
C274     C      0.223800000000     0.279410000000     0.335090000000    -0.065437   
C275     C      0.139360000000     0.186670000000     0.335430000000    -0.0160575  
C276     C      0.280240000000     0.222970000000     0.335080000000    -0.0654688  
C277     C      0.197310000000     0.223930000000     0.335170000000     0.0105001  
C278     C      0.224750000000     0.196480000000     0.334950000000     0.0104888  
C279     C      0.006980000000     0.962230000000     0.227380000000    -0.0172329  
C280     C      0.007060000000     0.045280000000     0.109260000000    -0.0170793  
C281     C      0.997290000000     0.957440000000     0.109240000000    -0.0143285  
C282     C      0.000800000000     0.976910000000     0.140990000000     0.0111449  
C283     C      0.003530000000     0.025760000000     0.141000000000     0.0101974  
C284     C      0.002140000000     0.050190000000     0.168330000000    -0.0647223  
C285     C      0.997210000000     0.040290000000     0.227400000000    -0.0140843  
C286     C      0.002150000000     0.952430000000     0.168310000000    -0.0660123  
C287     C      0.000770000000     0.024350000000     0.195650000000     0.00884454 
C288     C      0.003490000000     0.978230000000     0.195640000000     0.0125034  
H1       H      0.575180000000     0.883100000000     0.648440000000     0.0387426  
H2       H      0.430090000000     0.810360000000     0.647150000000     0.0396833  
H3       H      0.402720000000     0.701410000000     0.668460000000     0.0405987  
H4       H      0.601340000000     0.800710000000     0.668460000000     0.0406585  
H5       H      0.573980000000     0.691760000000     0.647160000000     0.0396847  
H6       H      0.430070000000     0.619820000000     0.689760000000     0.039735   
H7       H      0.573990000000     0.882300000000     0.689770000000     0.0398327  
H8       H      0.428900000000     0.809980000000     0.688490000000     0.0386839  
H9       H      0.428890000000     0.619020000000     0.648430000000     0.0386333  
H10      H      0.575160000000     0.692140000000     0.688490000000     0.0386901  
H11      H      0.428880000000     0.309960000000     0.688470000000     0.0386548  
H12      H      0.573970000000     0.382300000000     0.689760000000     0.0397357  
H13      H      0.601340000000     0.300720000000     0.668460000000     0.0406017  
H14      H      0.402720000000     0.201400000000     0.668450000000     0.0405463  
H15      H      0.430090000000     0.119820000000     0.689770000000     0.0396383  
H16      H      0.573990000000     0.191780000000     0.647150000000     0.0396534  
H17      H      0.430080000000     0.310340000000     0.647140000000     0.0396472  
H18      H      0.575160000000     0.383100000000     0.648440000000     0.038639   
H19      H      0.575180000000     0.192160000000     0.688490000000     0.0386587  
H20      H      0.428900000000     0.119020000000     0.648440000000     0.0385414  
H21      H      0.928940000000     0.619570000000     0.648170000000     0.0386932  
H22      H      0.074030000000     0.692320000000     0.646930000000     0.0395806  
H23      H      0.101380000000     0.801230000000     0.668300000000     0.0404507  
H24      H      0.902750000000     0.701920000000     0.668260000000     0.0407915  
H25      H      0.930120000000     0.810890000000     0.647030000000     0.0398121  
H26      H      0.074000000000     0.882780000000     0.689660000000     0.0396964  
H27      H      0.930100000000     0.620290000000     0.689510000000     0.0398018  
H28      H      0.075190000000     0.692630000000     0.688260000000     0.038588   
H29      H      0.075220000000     0.883650000000     0.648330000000     0.0386309  
H30      H      0.928930000000     0.810460000000     0.688360000000     0.0387733  
H31      H      0.075200000000     0.192700000000     0.688280000000     0.0385351  
H32      H      0.930120000000     0.120380000000     0.689540000000     0.0397434  
H33      H      0.902760000000     0.201920000000     0.668150000000     0.0407504  
H34      H      0.101380000000     0.301230000000     0.668190000000     0.0403844  
H35      H      0.074010000000     0.382830000000     0.689430000000     0.0395965  
H36      H      0.930150000000     0.310850000000     0.646780000000     0.0397702  
H37      H      0.074030000000     0.192250000000     0.646950000000     0.0395349  
H38      H      0.928940000000     0.119500000000     0.648210000000     0.0386464  
H39      H      0.928910000000     0.310490000000     0.688110000000     0.0387528  
H40      H      0.075210000000     0.383600000000     0.648090000000     0.0384989  
H41      H      0.538700000000     0.581630000000     0.898190000000     0.0417985  
H42      H      0.421810000000     0.448770000000     0.899170000000     0.0381894  
H43      H      0.415830000000     0.415090000000     0.835100000000     0.0419381  
H44      H      0.587840000000     0.587100000000     0.835140000000     0.0419745  
H45      H      0.554350000000     0.580950000000     0.771020000000     0.0377199  
H46      H      0.449560000000     0.421130000000     0.771040000000     0.0376754  
H47      H      0.581630000000     0.553540000000     0.899240000000     0.038248   
H48      H      0.464730000000     0.420650000000     0.898230000000     0.0417625  
H49      H      0.421450000000     0.464050000000     0.771990000000     0.0412876  
H50      H      0.582420000000     0.538010000000     0.772070000000     0.0413239  
H51      H      0.465140000000     0.920810000000     0.898250000000     0.0418559  
H52      H      0.582030000000     0.053700000000     0.899200000000     0.0381006  
H53      H      0.588110000000     0.087220000000     0.835090000000     0.0417449  
H54      H      0.416100000000     0.915210000000     0.835160000000     0.0421545  
H55      H      0.449700000000     0.921220000000     0.771070000000     0.0377753  
H56      H      0.554480000000     0.081040000000     0.771000000000     0.0375957  
H57      H      0.422210000000     0.948920000000     0.899230000000     0.0383338  
H58      H      0.539100000000     0.081790000000     0.898180000000     0.0416793  
H59      H      0.582570000000     0.038100000000     0.772030000000     0.0411351  
H60      H      0.421600000000     0.964140000000     0.772040000000     0.0414474  
H61      H      0.810560000000     0.428050000000     0.981440000000     0.0440089  
H62      H      0.882870000000     0.573110000000     0.980170000000     0.0448737  
H63      H      0.801330000000     0.600470000000     0.001610000000     0.0400823  
H64      H      0.702040000000     0.401850000000     0.001600000000     0.0400195  
H65      H      0.620390000000     0.429200000000     0.980420000000     0.0449841  
H66      H      0.692440000000     0.573080000000     0.023050000000     0.040663   
H67      H      0.811040000000     0.429210000000     0.022780000000     0.0407373  
H68      H      0.883790000000     0.574320000000     0.021500000000     0.0395132  
H69      H      0.692720000000     0.574300000000     0.981720000000     0.0439739  
H70      H      0.619700000000     0.428020000000     0.021760000000     0.0395732  
H71      H      0.383680000000     0.574280000000     0.021790000000     0.03958    
H72      H      0.310930000000     0.429220000000     0.023060000000     0.0406148  
H73      H      0.202030000000     0.401860000000     0.001650000000     0.0399738  
H74      H      0.301360000000     0.600480000000     0.001660000000     0.0400265  
H75      H      0.192360000000     0.573130000000     0.022860000000     0.0406304  
H76      H      0.120510000000     0.429240000000     0.980230000000     0.0448751  
H77      H      0.382980000000     0.573120000000     0.980460000000     0.0449819  
H78      H      0.310630000000     0.428020000000     0.981730000000     0.0439179  
H79      H      0.119590000000     0.428030000000     0.021560000000     0.0395079  
H80      H      0.192850000000     0.574320000000     0.981520000000     0.043913   
H81      H      0.921460000000     0.464420000000     0.771690000000     0.0413556  
H82      H      0.054340000000     0.581320000000     0.770770000000     0.0375569  
H83      H      0.087880000000     0.587320000000     0.834860000000     0.0417523  
H84      H      0.915880000000     0.415310000000     0.834760000000     0.0421483  
H85      H      0.921890000000     0.448830000000     0.898860000000     0.0382696  
H86      H      0.081720000000     0.553620000000     0.898930000000     0.038142   
H87      H      0.949560000000     0.421500000000     0.770680000000     0.037793   
H88      H      0.082440000000     0.538390000000     0.771740000000     0.0411786  
H89      H      0.038790000000     0.581720000000     0.897920000000     0.0415861  
H90      H      0.964830000000     0.420750000000     0.897870000000     0.0419242  
H91      H      0.884230000000     0.074560000000     0.021720000000     0.0395633  
H92      H      0.811480000000     0.929470000000     0.023000000000     0.0407759  
H93      H      0.702510000000     0.902110000000     0.001750000000     0.0402273  
H94      H      0.801820000000     0.100730000000     0.001740000000     0.0398711  
H95      H      0.692890000000     0.073370000000     0.023090000000     0.0405338  
H96      H      0.620900000000     0.929460000000     0.980490000000     0.0450809  
H97      H      0.883380000000     0.073370000000     0.980390000000     0.0449391  
H98      H      0.811050000000     0.928290000000     0.981670000000     0.0440575  
H99      H      0.620150000000     0.928290000000     0.021820000000     0.0396796  
H100     H      0.693240000000     0.074550000000     0.981760000000     0.0438532  
H101     H      0.384190000000     0.074560000000     0.021780000000     0.0394513  
H102     H      0.311430000000     0.929490000000     0.023080000000     0.0407119  
H103     H      0.202510000000     0.902120000000     0.001710000000     0.0401824  
H104     H      0.301830000000     0.100740000000     0.001700000000     0.0398103  
H105     H      0.192860000000     0.073380000000     0.022950000000     0.0404993  
H106     H      0.120960000000     0.929490000000     0.980330000000     0.0449609  
H107     H      0.383430000000     0.073360000000     0.980440000000     0.0448412  
H108     H      0.311090000000     0.928270000000     0.981750000000     0.0440099  
H109     H      0.120100000000     0.928290000000     0.021660000000     0.039586   
H110     H      0.193290000000     0.074560000000     0.981620000000     0.0438009  
H111     H      0.921580000000     0.964640000000     0.771910000000     0.0415173  
H112     H      0.054450000000     0.081530000000     0.770910000000     0.0374528  
H113     H      0.088110000000     0.087570000000     0.834990000000     0.0415131  
H114     H      0.916100000000     0.915560000000     0.834980000000     0.042361   
H115     H      0.922230000000     0.949110000000     0.899080000000     0.0384316  
H116     H      0.082050000000     0.053890000000     0.899060000000     0.0379875  
H117     H      0.949670000000     0.921700000000     0.770880000000     0.0379004  
H118     H      0.082560000000     0.038600000000     0.771880000000     0.0410323  
H119     H      0.039120000000     0.081990000000     0.898100000000     0.0415241  
H120     H      0.965160000000     0.921020000000     0.898050000000     0.0419999  
H121     H      0.421570000000     0.457590000000     0.564870000000     0.0411649  
H122     H      0.554450000000     0.473570000000     0.565870000000     0.0375867  
H123     H      0.588070000000     0.501130000000     0.501780000000     0.0417029  
H124     H      0.416060000000     0.501130000000     0.501790000000     0.041653   
H125     H      0.422160000000     0.473650000000     0.437700000000     0.0375766  
H126     H      0.581980000000     0.528690000000     0.437690000000     0.037601   
H127     H      0.449670000000     0.528620000000     0.565880000000     0.0375852  
H128     H      0.582550000000     0.544600000000     0.564880000000     0.0412115  
H129     H      0.539050000000     0.457660000000     0.438680000000     0.0411764  
H130     H      0.465090000000     0.544680000000     0.438710000000     0.0411929  
H131     H      0.458420000000     0.538170000000     0.231580000000     0.0411882  
H132     H      0.474410000000     0.421270000000     0.232540000000     0.0375821  
H133     H      0.501820000000     0.415150000000     0.168440000000     0.0416219  
H134     H      0.501820000000     0.587170000000     0.168470000000     0.0416438  
H135     H      0.474200000000     0.553530000000     0.104390000000     0.0375364  
H136     H      0.529230000000     0.448740000000     0.104340000000     0.0375199  
H137     H      0.529450000000     0.581090000000     0.232540000000     0.037612   
H138     H      0.545430000000     0.464210000000     0.231510000000     0.0412134  
H139     H      0.458210000000     0.420650000000     0.105370000000     0.0410579  
H140     H      0.545230000000     0.581630000000     0.105350000000     0.0410999  
H141     H      0.539150000000     0.957960000000     0.438660000000     0.0409192  
H142     H      0.422250000000     0.973950000000     0.437690000000     0.0383488  
H143     H      0.416090000000     0.001290000000     0.501800000000     0.0418348  
H144     H      0.588100000000     0.001280000000     0.501780000000     0.0412722  
H145     H      0.554420000000     0.973580000000     0.565840000000     0.0381636  
H146     H      0.449630000000     0.028620000000     0.565920000000     0.0370549  
H147     H      0.582070000000     0.028990000000     0.437720000000     0.0367583  
H148     H      0.465190000000     0.044970000000     0.438740000000     0.0413749  
H149     H      0.421550000000     0.957600000000     0.564850000000     0.0411991  
H150     H      0.582530000000     0.044610000000     0.564910000000     0.0412024  
H151     H      0.458690000000     0.921020000000     0.105380000000     0.041133   
H152     H      0.474680000000     0.053900000000     0.104360000000     0.0373744  
H153     H      0.502210000000     0.087550000000     0.168440000000     0.0414395  
H154     H      0.502200000000     0.915540000000     0.168470000000     0.0418358  
H155     H      0.474690000000     0.921660000000     0.232550000000     0.0376873  
H156     H      0.529730000000     0.081480000000     0.232540000000     0.0374878  
H157     H      0.529710000000     0.949120000000     0.104380000000     0.0376504  
H158     H      0.545710000000     0.082000000000     0.105350000000     0.0409668  
H159     H      0.458700000000     0.038560000000     0.231540000000     0.0409979  
H160     H      0.545710000000     0.964590000000     0.231550000000     0.0413685  
H161     H      0.965240000000     0.545180000000     0.438370000000     0.0413427  
H162     H      0.082130000000     0.529200000000     0.437390000000     0.0375023  
H163     H      0.088220000000     0.501700000000     0.501490000000     0.0414449  
H164     H      0.916200000000     0.501690000000     0.501460000000     0.0418908  
H165     H      0.949790000000     0.529220000000     0.565550000000     0.0377429  
H166     H      0.054580000000     0.474190000000     0.565580000000     0.0374373  
H167     H      0.922310000000     0.474150000000     0.437380000000     0.037668   
H168     H      0.039210000000     0.458170000000     0.438400000000     0.0410223  
H169     H      0.082660000000     0.545220000000     0.564580000000     0.0410771  
H170     H      0.921690000000     0.458200000000     0.564550000000     0.0412824  
H171     H      0.811130000000     0.383660000000     0.354920000000     0.0386389  
H172     H      0.883480000000     0.310920000000     0.356210000000     0.0397589  
H173     H      0.801850000000     0.201910000000     0.335010000000     0.0405939  
H174     H      0.702520000000     0.301200000000     0.335010000000     0.0405758  
H175     H      0.621000000000     0.192300000000     0.356430000000     0.0396365  
H176     H      0.692870000000     0.120270000000     0.313810000000     0.0396059  
H177     H      0.811410000000     0.382740000000     0.313590000000     0.0396914  
H178     H      0.884180000000     0.310430000000     0.314870000000     0.0387058  
H179     H      0.693330000000     0.119560000000     0.355140000000     0.0385692  
H180     H      0.620100000000     0.192600000000     0.315090000000     0.0386004  
H181     H      0.311040000000     0.883540000000     0.355080000000     0.0387259  
H182     H      0.383350000000     0.810780000000     0.356360000000     0.0396948  
H183     H      0.301830000000     0.701900000000     0.334920000000     0.0405812  
H184     H      0.202540000000     0.801230000000     0.334920000000     0.0405952  
H185     H      0.120880000000     0.692240000000     0.356100000000     0.0396332  
H186     H      0.192930000000     0.620380000000     0.313490000000     0.0396741  
H187     H      0.311550000000     0.882870000000     0.313750000000     0.0397852  
H188     H      0.384290000000     0.810510000000     0.315030000000     0.0386458  
H189     H      0.193220000000     0.619470000000     0.354820000000     0.0386356  
H190     H      0.120200000000     0.692710000000     0.314760000000     0.0385916  
H191     H      0.958160000000     0.420710000000     0.105090000000     0.0408248  
H192     H      0.974140000000     0.553570000000     0.104070000000     0.0381428  
H193     H      0.001850000000     0.587310000000     0.168120000000     0.0414095  
H194     H      0.001860000000     0.415300000000     0.168160000000     0.0413907  
H195     H      0.974530000000     0.421530000000     0.232270000000     0.0382839  
H196     H      0.029570000000     0.581350000000     0.232190000000     0.0367949  
H197     H      0.029190000000     0.448790000000     0.104040000000     0.0367377  
H198     H      0.045170000000     0.581690000000     0.105010000000     0.0411915  
H199     H      0.958530000000     0.538420000000     0.231260000000     0.0409633  
H200     H      0.045560000000     0.464470000000     0.231200000000     0.0413003  
H201     H      0.921570000000     0.957970000000     0.564760000000     0.0410056  
H202     H      0.054460000000     0.973950000000     0.565770000000     0.0382108  
H203     H      0.088020000000     0.001330000000     0.501670000000     0.0416504  
H204     H      0.916010000000     0.001330000000     0.501640000000     0.0414619  
H205     H      0.922070000000     0.973670000000     0.437570000000     0.0382661  
H206     H      0.081890000000     0.028710000000     0.437560000000     0.0369585  
H207     H      0.949680000000     0.028990000000     0.565710000000     0.0369079  
H208     H      0.082550000000     0.044980000000     0.564720000000     0.0412585  
H209     H      0.038950000000     0.957680000000     0.438600000000     0.04104    
H210     H      0.964980000000     0.044700000000     0.438530000000     0.0413606  
H211     H      0.693140000000     0.619170000000     0.355100000000     0.038655   
H212     H      0.620810000000     0.691920000000     0.356400000000     0.0396977  
H213     H      0.702360000000     0.800840000000     0.335040000000     0.0406419  
H214     H      0.801670000000     0.701530000000     0.335020000000     0.0406401  
H215     H      0.883280000000     0.810500000000     0.356280000000     0.0398062  
H216     H      0.811290000000     0.882400000000     0.313670000000     0.0398039  
H217     H      0.692700000000     0.619930000000     0.313770000000     0.039716   
H218     H      0.619940000000     0.692260000000     0.315070000000     0.038655   
H219     H      0.810940000000     0.883260000000     0.355000000000     0.038754   
H220     H      0.884040000000     0.810080000000     0.314950000000     0.0387422  
H221     H      0.384070000000     0.310110000000     0.315090000000     0.038624   
H222     H      0.311320000000     0.382450000000     0.313830000000     0.039674   
H223     H      0.202360000000     0.300850000000     0.335090000000     0.0405167  
H224     H      0.301670000000     0.201530000000     0.335070000000     0.0405305  
H225     H      0.192750000000     0.119980000000     0.313720000000     0.0395706  
H226     H      0.120750000000     0.191880000000     0.356340000000     0.0395812  
H227     H      0.383240000000     0.310460000000     0.356430000000     0.0396604  
H228     H      0.310910000000     0.383210000000     0.355160000000     0.0386304  
H229     H      0.120000000000     0.192310000000     0.315010000000     0.0385531  
H230     H      0.193090000000     0.119120000000     0.355050000000     0.0385259  
H231     H      0.958680000000     0.920870000000     0.105210000000     0.0409257  
H232     H      0.974660000000     0.053760000000     0.104250000000     0.0380842  
H233     H      0.002140000000     0.087310000000     0.168340000000     0.0412272  
H234     H      0.002140000000     0.915300000000     0.168300000000     0.0416193  
H235     H      0.974580000000     0.921340000000     0.232380000000     0.0383438  
H236     H      0.029610000000     0.081160000000     0.232430000000     0.0367038  
H237     H      0.029700000000     0.948970000000     0.104220000000     0.0368631  
H238     H      0.045690000000     0.081850000000     0.105250000000     0.0410905  
H239     H      0.958580000000     0.038230000000     0.231410000000     0.0408033  
H240     H      0.045600000000     0.964280000000     0.231410000000     0.0414463  
N1       N      0.502020000000     0.634360000000     0.668460000000    -0.181336   
N2       N      0.502040000000     0.867760000000     0.668460000000    -0.181291   
N3       N      0.502040000000     0.134370000000     0.668460000000    -0.181351   
N4       N      0.502020000000     0.367750000000     0.668450000000    -0.181381   
N5       N      0.002070000000     0.868270000000     0.668350000000    -0.181559   
N6       N      0.002060000000     0.634880000000     0.668200000000    -0.181542   
N7       N      0.002070000000     0.368270000000     0.668100000000    -0.181586   
N8       N      0.002070000000     0.134880000000     0.668260000000    -0.181624   
N9       N      0.501960000000     0.501030000000     0.757330000000    -0.181149   
N10      N      0.501700000000     0.501150000000     0.912910000000    -0.180728   
N11      N      0.502080000000     0.001110000000     0.757330000000    -0.181403   
N12      N      0.502130000000     0.001320000000     0.912920000000    -0.180986   
N13      N      0.634980000000     0.501150000000     0.001760000000    -0.180242   
N14      N      0.868390000000     0.501170000000     0.001460000000    -0.179296   
N15      N      0.135000000000     0.501180000000     0.001530000000    -0.180224   
N16      N      0.368380000000     0.501160000000     0.001770000000    -0.180254   
N17      N      0.001790000000     0.501220000000     0.912600000000    -0.180876   
N18      N      0.001960000000     0.501430000000     0.757020000000    -0.1814     
N19      N      0.635470000000     0.001420000000     0.001800000000    -0.180408   
N20      N      0.868870000000     0.001430000000     0.001690000000    -0.180463   
N21      N      0.135470000000     0.001430000000     0.001640000000    -0.180524   
N22      N      0.368860000000     0.001420000000     0.001770000000    -0.180491   
N23      N      0.002150000000     0.001490000000     0.912780000000    -0.181115   
N24      N      0.002060000000     0.001620000000     0.757190000000    -0.18158    
N25      N      0.502070000000     0.501180000000     0.423990000000    -0.18127    
N26      N      0.502060000000     0.501090000000     0.579580000000    -0.181182   
N27      N      0.501700000000     0.501130000000     0.090660000000    -0.181126   
N28      N      0.501950000000     0.501190000000     0.246250000000    -0.181259   
N29      N      0.502030000000     0.001080000000     0.579590000000    -0.181517   
N30      N      0.502180000000     0.001490000000     0.424000000000    -0.181458   
N31      N      0.502210000000     0.001580000000     0.246250000000    -0.181387   
N32      N      0.502190000000     0.001500000000     0.090660000000    -0.181444   
N33      N      0.002170000000     0.501700000000     0.579270000000    -0.181477   
N34      N      0.002220000000     0.501660000000     0.423680000000    -0.181394   
N35      N      0.635500000000     0.134850000000     0.335130000000    -0.181436   
N36      N      0.868870000000     0.368260000000     0.334880000000    -0.181307   
N37      N      0.135480000000     0.634870000000     0.334780000000    -0.181346   
N38      N      0.368890000000     0.868250000000     0.335080000000    -0.181328   
N39      N      0.002080000000     0.501470000000     0.245940000000    -0.181592   
N40      N      0.001650000000     0.501180000000     0.090350000000    -0.181422   
N41      N      0.001970000000     0.001180000000     0.423860000000    -0.181595   
N42      N      0.002070000000     0.001500000000     0.579450000000    -0.181738   
N43      N      0.868710000000     0.867890000000     0.334970000000    -0.181316   
N44      N      0.635320000000     0.634490000000     0.335090000000    -0.181375   
N45      N      0.135320000000     0.134500000000     0.335020000000    -0.181418   
N46      N      0.368710000000     0.367890000000     0.335130000000    -0.181338   
N47      N      0.002080000000     0.001240000000     0.246110000000    -0.181672   
N48      N      0.002180000000     0.001370000000     0.090530000000    -0.18161    
O1       O      0.021090000000     0.976120000000     0.291590000000    -0.55565    
O2       O      0.027080000000     0.982130000000     0.378390000000    -0.555586   
O3       O      0.959050000000     0.914030000000     0.336470000000    -0.556229   
O4       O      0.089180000000     0.044160000000     0.333510000000    -0.557224   
O5       O      0.044980000000     0.088360000000     0.336490000000    -0.55712    
O6       O      0.914850000000     0.958230000000     0.333480000000    -0.556254   
O7       O      0.976900000000     0.020230000000     0.378380000000    -0.555767   
O8       O      0.982990000000     0.026300000000     0.291590000000    -0.555778   
O9       O      0.021190000000     0.476440000000     0.291420000000    -0.556316   
O10      O      0.027300000000     0.482570000000     0.378210000000    -0.556145   
O11      O      0.959220000000     0.414410000000     0.336330000000    -0.556179   
O12      O      0.089340000000     0.544530000000     0.333290000000    -0.556554   
O13      O      0.045140000000     0.588740000000     0.336270000000    -0.557381   
O14      O      0.915010000000     0.458600000000     0.333340000000    -0.556896   
O15      O      0.977120000000     0.520670000000     0.378200000000    -0.55604    
O16      O      0.983090000000     0.526610000000     0.291410000000    -0.556194   
O17      O      0.483160000000     0.026660000000     0.291730000000    -0.556223   
O18      O      0.477100000000     0.020580000000     0.378520000000    -0.556272   
O19      O      0.545160000000     0.088710000000     0.336630000000    -0.55665    
O20      O      0.415030000000     0.958590000000     0.333620000000    -0.55613    
O21      O      0.459230000000     0.914380000000     0.336600000000    -0.556883   
O22      O      0.589360000000     0.044510000000     0.333640000000    -0.557411   
O23      O      0.527270000000     0.982470000000     0.378510000000    -0.556124   
O24      O      0.521260000000     0.976480000000     0.291730000000    -0.556103   
O25      O      0.482940000000     0.526280000000     0.291740000000    -0.556595   
O26      O      0.476960000000     0.520240000000     0.378520000000    -0.556541   
O27      O      0.544980000000     0.588350000000     0.336610000000    -0.556796   
O28      O      0.414850000000     0.458230000000     0.333650000000    -0.55683    
O29      O      0.459060000000     0.414030000000     0.336610000000    -0.55689    
O30      O      0.589180000000     0.544150000000     0.333600000000    -0.55674    
O31      O      0.527140000000     0.482140000000     0.378500000000    -0.556505   
O32      O      0.521040000000     0.476100000000     0.291710000000    -0.556381   
O33      O      0.959200000000     0.045630000000     0.000180000000    -0.556117   
O34      O      0.089330000000     0.045630000000     0.003140000000    -0.556596   
O35      O      0.027250000000     0.045600000000     0.958270000000    -0.552007   
O36      O      0.021230000000     0.045540000000     0.045060000000    -0.555056   
O37      O      0.983130000000     0.957260000000     0.045040000000    -0.554436   
O38      O      0.977070000000     0.957320000000     0.958250000000    -0.551414   
O39      O      0.045130000000     0.957230000000     0.000140000000    -0.55708    
O40      O      0.915010000000     0.957230000000     0.003150000000    -0.556545   
O41      O      0.088860000000     0.545390000000     0.002990000000    -0.55557    
O42      O      0.958730000000     0.545380000000     0.999970000000    -0.546989   
O43      O      0.020720000000     0.545310000000     0.044870000000    -0.555101   
O44      O      0.026820000000     0.545340000000     0.958090000000    -0.551668   
O45      O      0.976650000000     0.457060000000     0.958070000000    -0.551887   
O46      O      0.982620000000     0.457040000000     0.044870000000    -0.555039   
O47      O      0.914530000000     0.456980000000     0.002950000000    -0.555594   
O48      O      0.044660000000     0.456980000000     0.000000000000    -0.557506   
O49      O      0.545130000000     0.957210000000     0.000320000000    -0.556404   
O50      O      0.415000000000     0.957220000000     0.003290000000    -0.556235   
O51      O      0.477060000000     0.957230000000     0.958410000000    -0.551661   
O52      O      0.483130000000     0.957320000000     0.045200000000    -0.555083   
O53      O      0.521230000000     0.045600000000     0.045170000000    -0.555396   
O54      O      0.527240000000     0.045510000000     0.958380000000    -0.552038   
O55      O      0.459200000000     0.045620000000     0.000280000000    -0.556749   
O56      O      0.589330000000     0.045620000000     0.003280000000    -0.556688   
O57      O      0.414520000000     0.456950000000     0.003280000000    -0.556935   
O58      O      0.544640000000     0.456940000000     0.000280000000    -0.556953   
O59      O      0.482630000000     0.457000000000     0.045180000000    -0.555528   
O60      O      0.476590000000     0.457020000000     0.958390000000    -0.552569   
O61      O      0.526770000000     0.545290000000     0.958390000000    -0.55235    
O62      O      0.520730000000     0.545280000000     0.045180000000    -0.555645   
O63      O      0.588850000000     0.545350000000     0.003280000000    -0.556897   
O64      O      0.458720000000     0.545350000000     0.000300000000    -0.556996   
O65      O      0.957930000000     0.976520000000     0.711710000000    -0.555541   
O66      O      0.957930000000     0.982500000000     0.624920000000    -0.555319   
O67      O      0.957870000000     0.914410000000     0.666840000000    -0.556327   
O68      O      0.957870000000     0.044540000000     0.669790000000    -0.55675    
O69      O      0.046270000000     0.088740000000     0.666800000000    -0.556367   
O70      O      0.046270000000     0.958610000000     0.669830000000    -0.555914   
O71      O      0.046210000000     0.020590000000     0.624930000000    -0.556062   
O72      O      0.046210000000     0.026690000000     0.711710000000    -0.556113   
O73      O      0.046150000000     0.526600000000     0.711550000000    -0.556319   
O74      O      0.046260000000     0.520690000000     0.624760000000    -0.556177   
O75      O      0.046270000000     0.588740000000     0.666690000000    -0.556504   
O76      O      0.046270000000     0.458610000000     0.669630000000    -0.55653    
O77      O      0.957870000000     0.414410000000     0.666600000000    -0.556131   
O78      O      0.957860000000     0.544530000000     0.669650000000    -0.556069   
O79      O      0.957980000000     0.482590000000     0.624730000000    -0.555952   
O80      O      0.957880000000     0.476420000000     0.711520000000    -0.555805   
O81      O      0.546200000000     0.026170000000     0.711850000000    -0.556262   
O82      O      0.546170000000     0.020110000000     0.625060000000    -0.556424   
O83      O      0.546250000000     0.088230000000     0.666960000000    -0.556659   
O84      O      0.546250000000     0.958100000000     0.669950000000    -0.556052   
O85      O      0.457840000000     0.913900000000     0.666970000000    -0.556838   
O86      O      0.457840000000     0.044030000000     0.669960000000    -0.55724    
O87      O      0.457900000000     0.982020000000     0.625070000000    -0.556145   
O88      O      0.457930000000     0.975990000000     0.711860000000    -0.556034   
O89      O      0.457850000000     0.475950000000     0.711840000000    -0.556578   
O90      O      0.457900000000     0.482020000000     0.625050000000    -0.55645    
O91      O      0.457820000000     0.413890000000     0.666950000000    -0.556851   
O92      O      0.457820000000     0.544020000000     0.669940000000    -0.556801   
O93      O      0.546220000000     0.588220000000     0.666970000000    -0.556809   
O94      O      0.546220000000     0.458090000000     0.669950000000    -0.556748   
O95      O      0.546180000000     0.520120000000     0.625060000000    -0.556468   
O96      O      0.546130000000     0.526130000000     0.711860000000    -0.55634    
V1       V      0.025900000000     0.977310000000     0.334990000000     1.3921     
V2       V      0.978130000000     0.025080000000     0.334980000000     1.39238    
V3       V      0.026060000000     0.477690000000     0.334810000000     1.39084    
V4       V      0.978290000000     0.525460000000     0.334800000000     1.3942     
V5       V      0.478310000000     0.025440000000     0.335130000000     1.39083    
V6       V      0.526080000000     0.977660000000     0.335120000000     1.39461    
V7       V      0.478130000000     0.525070000000     0.335130000000     1.39301    
V8       V      0.525900000000     0.477300000000     0.335110000000     1.39261    
V9       V      0.026060000000     0.049200000000     0.001660000000     1.38473    
V10      V      0.978280000000     0.953650000000     0.001640000000     1.38927    
V11      V      0.025580000000     0.548960000000     0.001480000000     1.37993    
V12      V      0.977820000000     0.453410000000     0.001470000000     1.38908    
V13      V      0.478280000000     0.953640000000     0.001810000000     1.38755    
V14      V      0.526050000000     0.049190000000     0.001780000000     1.38636    
V15      V      0.477790000000     0.453370000000     0.001780000000     1.38728    
V16      V      0.525570000000     0.548920000000     0.001790000000     1.38729    
V17      V      0.954300000000     0.977690000000     0.668320000000     1.39456    
V18      V      0.049840000000     0.025460000000     0.668320000000     1.39012    
V19      V      0.049840000000     0.525460000000     0.668160000000     1.39176    
V20      V      0.954300000000     0.477690000000     0.668120000000     1.39291    
V21      V      0.549820000000     0.024960000000     0.668450000000     1.39096    
V22      V      0.454270000000     0.977180000000     0.668460000000     1.39413    
V23      V      0.454240000000     0.477160000000     0.668450000000     1.39266    
V24      V      0.549790000000     0.524940000000     0.668460000000     1.3924     


