data_structure

_audit_creation_method RASPA-1.0
_audit_creation_date 2023-6-5
_audit_author_name 'Poobodin Mano'

_cell_length_a    28.0819
_cell_length_b    28.0221
_cell_length_c    33.2245
_cell_angle_alpha 89.9847
_cell_angle_beta  90.0154
_cell_angle_gamma 119.983
_cell_volume      22646

_symmetry_cell_setting          triclinic
_symmetry_space_group_name_Hall 'P 1'
_symmetry_space_group_name_H-M  'P 1'
_symmetry_Int_Tables_number     1

_symmetry_equiv_pos_as_xyz 'x,y,z'

loop_
_atom_site_label
_atom_site_type_symbol
_atom_site_fract_x
_atom_site_fract_y
_atom_site_fract_z
_atom_site_charge
C1       C      0.883150000000     0.701320000000     0.425290000000     0.49136    
C2       C      0.944140000000     0.743720000000     0.280690000000     0.490766   
C3       C      0.009890000000     0.781520000000     0.376120000000     0.48453    
C4       C      0.813580000000     0.660330000000     0.329780000000     0.486259   
C5       C      0.210530000000     0.870790000000     0.508850000000     0.488908   
C6       C      0.277210000000     0.905430000000     0.364910000000     0.487445   
C7       C      0.342370000000     0.951390000000     0.463270000000     0.486115   
C8       C      0.148990000000     0.826840000000     0.412010000000     0.490239   
C9       C      0.606060000000     0.045910000000     0.454940000000     0.490921   
C10      C      0.544370000000     0.017110000000     0.099970000000     0.489399   
C11      C      0.477130000000     0.985570000000     0.504380000000     0.485126   
C12      C      0.674310000000     0.075760000000     0.052090000000     0.487167   
C13      C      0.230350000000     0.406350000000     0.252210000000     0.485248   
C14      C      0.276830000000     0.382740000000     0.109090000000     0.487194   
C15      C      0.345880000000     0.417860000000     0.206000000000     0.487596   
C16      C      0.155070000000     0.364910000000     0.156660000000     0.484432   
C17      C      0.936420000000     0.236530000000     0.032420000000     0.486549   
C18      C      0.885520000000     0.209760000000     0.179560000000     0.489493   
C19      C      0.811820000000     0.178900000000     0.086380000000     0.485707   
C20      C      0.012770000000     0.269260000000     0.125750000000     0.477875   
C21      C      0.593320000000     0.581320000000     0.210510000000     0.484526   
C22      C      0.542880000000     0.529950000000     0.356900000000     0.482164   
C23      C      0.471120000000     0.506350000000     0.261850000000     0.489853   
C24      C      0.670230000000     0.615260000000     0.304170000000     0.486965   
C25      C      0.225860000000     0.385450000000     0.359570000000     0.485079   
C26      C      0.294500000000     0.409850000000     0.503230000000     0.488573   
C27      C      0.321610000000     0.359760000000     0.410690000000     0.48846    
C28      C      0.204010000000     0.441660000000     0.451220000000     0.487099   
C29      C      0.396160000000     0.176720000000     0.425560000000     0.485651   
C30      C      0.402250000000     0.230090000000     0.279220000000     0.485067   
C31      C      0.353120000000     0.256430000000     0.372510000000     0.488834   
C32      C      0.439110000000     0.142510000000     0.332200000000     0.488521   
C33      C      0.035470000000     0.532180000000     0.442790000000     0.483797   
C34      C      0.073080000000     0.513260000000     0.086570000000     0.487384   
C35      C      0.098290000000     0.466850000000     0.493510000000     0.487445   
C36      C      0.025050000000     0.593590000000     0.037690000000     0.48271    
C37      C      0.717550000000     0.882130000000     0.119940000000     0.48739    
C38      C      0.748960000000     0.848450000000     0.264500000000     0.48697    
C39      C      0.770350000000     0.803520000000     0.166510000000     0.487089   
C40      C      0.699080000000     0.926660000000     0.216690000000     0.490583   
C41      C      0.948770000000     0.719500000000     0.175450000000     0.492497   
C42      C      0.914720000000     0.745120000000     0.030230000000     0.487838   
C43      C      0.874810000000     0.774510000000     0.126030000000     0.486462   
C44      C      0.991880000000     0.694340000000     0.079580000000     0.491992   
C45      C      0.582210000000     0.014980000000     0.349770000000     0.491262   
C46      C      0.559810000000     0.053270000000     0.204830000000     0.490475   
C47      C      0.534950000000     0.096840000000     0.301140000000     0.487716   
C48      C      0.606630000000     0.973010000000     0.253890000000     0.489339   
C49      C      0.364460000000     0.226690000000     0.174710000000     0.485136   
C50      C      0.355530000000     0.177400000000     0.027220000000     0.480837   
C51      C      0.308980000000     0.104390000000     0.120570000000     0.486104   
C52      C      0.417530000000     0.306410000000     0.081730000000     0.479186   
C53      C      0.545290000000     0.577160000000     0.109030000000     0.481506   
C54      C      0.505250000000     0.532970000000     0.461140000000     0.482399   
C55      C      0.461550000000     0.450100000000     0.053610000000     0.483218   
C56      C      0.585410000000     0.651390000000     0.516940000000     0.488106   
C57      C      0.248910000000     0.906680000000     0.259110000000     0.487529   
C58      C      0.223510000000     0.843640000000     0.114310000000     0.488797   
C59      C      0.187520000000     0.775280000000     0.210800000000     0.485794   
C60      C      0.283450000000     0.972510000000     0.161610000000     0.488395   
C61      C      0.038030000000     0.504690000000     0.190880000000     0.483567   
C62      C      0.068610000000     0.562850000000     0.337040000000     0.486393   
C63      C      0.087640000000     0.634420000000     0.241930000000     0.488054   
C64      C      0.023290000000     0.439120000000     0.286690000000     0.489215   
C65      C      0.890310000000     0.177800000000     0.283770000000     0.490498   
C66      C      0.914020000000     0.239520000000     0.428570000000     0.489725   
C67      C      0.936040000000     0.304010000000     0.331330000000     0.492151   
C68      C      0.865720000000     0.109750000000     0.380430000000     0.489602   
C69      C      0.748870000000     0.906360000000     0.514380000000     0.48825    
C70      C      0.715930000000     0.839670000000     0.370250000000     0.487433   
C71      C      0.691890000000     0.776950000000     0.469890000000     0.490895   
C72      C      0.770820000000     0.970770000000     0.416670000000     0.490346   
C73      C      0.887630000000     0.703430000000     0.926270000000     0.491208   
C74      C      0.940890000000     0.734320000000     0.779760000000     0.490217   
C75      C      0.011330000000     0.777820000000     0.873880000000     0.485367   
C76      C      0.812970000000     0.656810000000     0.832310000000     0.486326   
C77      C      0.214030000000     0.867200000000     0.008930000000     0.482373   
C78      C      0.274410000000     0.904070000000     0.863660000000     0.487718   
C79      C      0.342960000000     0.950170000000     0.961290000000     0.487363   
C80      C      0.149150000000     0.822940000000     0.912240000000     0.490852   
C81      C      0.607630000000     0.046080000000     0.955500000000     0.490427   
C82      C      0.546730000000     0.018940000000     0.600280000000     0.48995    
C83      C      0.477530000000     0.984930000000     0.002930000000     0.483194   
C84      C      0.675530000000     0.076970000000     0.550220000000     0.486967   
C85      C      0.236290000000     0.410850000000     0.752270000000     0.48488    
C86      C      0.273890000000     0.379360000000     0.608640000000     0.487336   
C87      C      0.347900000000     0.418270000000     0.703710000000     0.487804   
C88      C      0.155270000000     0.365260000000     0.658940000000     0.484286   
C89      C      0.942250000000     0.237390000000     0.533760000000     0.489349   
C90      C      0.881030000000     0.210660000000     0.678810000000     0.48937    
C91      C      0.813740000000     0.180400000000     0.583400000000     0.485111   
C92      C      0.012100000000     0.269580000000     0.629560000000     0.477473   
C93      C      0.595010000000     0.581450000000     0.710580000000     0.48442    
C94      C      0.542630000000     0.528410000000     0.856510000000     0.482295   
C95      C      0.472420000000     0.506330000000     0.760490000000     0.489734   
C96      C      0.670560000000     0.613640000000     0.805180000000     0.487278   
C97      C      0.234750000000     0.393300000000     0.860160000000     0.485244   
C98      C      0.301510000000     0.416220000000     0.004230000000     0.481578   
C99      C      0.326740000000     0.363100000000     0.912090000000     0.488821   
C100     C      0.216620000000     0.453670000000     0.951110000000     0.488224   
C101     C      0.398880000000     0.177910000000     0.925250000000     0.486086   
C102     C      0.402640000000     0.231560000000     0.779230000000     0.484937   
C103     C      0.355130000000     0.257800000000     0.873500000000     0.488481   
C104     C      0.440630000000     0.144120000000     0.831340000000     0.488549   
C105     C      0.072730000000     0.571530000000     0.942660000000     0.486522   
C106     C      0.070020000000     0.510640000000     0.589280000000     0.487522   
C107     C      0.113930000000     0.484800000000     0.990910000000     0.487564   
C108     C      0.004280000000     0.571790000000     0.538260000000     0.483073   
C109     C      0.718380000000     0.882060000000     0.620020000000     0.487852   
C110     C      0.746660000000     0.846620000000     0.764850000000     0.487217   
C111     C      0.767370000000     0.800580000000     0.667260000000     0.487713   
C112     C      0.700170000000     0.927380000000     0.716700000000     0.490874   
C113     C      0.937210000000     0.704470000000     0.674560000000     0.491759   
C114     C      0.904260000000     0.736100000000     0.530390000000     0.49109    
C115     C      0.868520000000     0.766390000000     0.627480000000     0.487019   
C116     C      0.975330000000     0.676890000000     0.577130000000     0.492442   
C117     C      0.584000000000     0.016420000000     0.850180000000     0.49138    
C118     C      0.562520000000     0.055350000000     0.705180000000     0.490291   
C119     C      0.536860000000     0.098520000000     0.801250000000     0.487859   
C120     C      0.608880000000     0.974890000000     0.754300000000     0.489631   
C121     C      0.363320000000     0.227240000000     0.675020000000     0.484946   
C122     C      0.353000000000     0.177440000000     0.527470000000     0.48278    
C123     C      0.306150000000     0.104560000000     0.620880000000     0.485219   
C124     C      0.416240000000     0.306600000000     0.581980000000     0.47841    
C125     C      0.546190000000     0.577670000000     0.609400000000     0.481807   
C126     C      0.505440000000     0.532200000000     0.960690000000     0.482438   
C127     C      0.461140000000     0.450690000000     0.554160000000     0.482155   
C128     C      0.584890000000     0.650990000000     0.016840000000     0.488468   
C129     C      0.240930000000     0.905150000000     0.758900000000     0.487781   
C130     C      0.211800000000     0.842240000000     0.614050000000     0.489525   
C131     C      0.173060000000     0.773710000000     0.710440000000     0.484821   
C132     C      0.276920000000     0.971130000000     0.661410000000     0.487458   
C133     C      0.033330000000     0.505940000000     0.693570000000     0.484851   
C134     C      0.034380000000     0.561070000000     0.838470000000     0.48577    
C135     C      0.069720000000     0.634180000000     0.742360000000     0.487826   
C136     C      0.005480000000     0.439820000000     0.789530000000     0.488606   
C137     C      0.878940000000     0.177090000000     0.783180000000     0.490815   
C138     C      0.902280000000     0.237640000000     0.928250000000     0.489636   
C139     C      0.920290000000     0.302600000000     0.831450000000     0.492145   
C140     C      0.857770000000     0.109350000000     0.879380000000     0.489937   
C141     C      0.746290000000     0.906700000000     0.014150000000     0.481572   
C142     C      0.713080000000     0.838580000000     0.870390000000     0.487467   
C143     C      0.690720000000     0.777030000000     0.970230000000     0.491877   
C144     C      0.766180000000     0.969890000000     0.916140000000     0.491302   
H1       H      0.874830000000     0.044170000000     0.398670000000     0.114049   
H2       H      0.762640000000     0.036730000000     0.398740000000     0.121936   
H3       H      0.923800000000     0.366610000000     0.311610000000     0.115775   
H4       H      0.036860000000     0.376530000000     0.305650000000     0.118555   
H5       H      0.190660000000     0.707130000000     0.228440000000     0.11617    
H6       H      0.079720000000     0.702580000000     0.227110000000     0.118905   
H7       H      0.596540000000     0.727840000000     0.505620000000     0.114829   
H8       H      0.693430000000     0.708790000000     0.493850000000     0.117734   
H9       H      0.352150000000     0.043140000000     0.142260000000     0.120509   
H10      H      0.238400000000     0.031880000000     0.136080000000     0.11183    
H11      H      0.491530000000     0.376310000000     0.069650000000     0.114548   
H12      H      0.386180000000     0.381730000000     0.068160000000     0.120762   
H13      H      0.794420000000     0.867640000000     0.316650000000     0.110738   
H14      H      0.669770000000     0.811390000000     0.318370000000     0.110622   
H15      H      0.793630000000     0.935210000000     0.065220000000     0.111917   
H16      H      0.669160000000     0.866210000000     0.069440000000     0.109954   
H17      H      0.765930000000     0.730280000000     0.147040000000     0.115786   
H18      H      0.870320000000     0.842500000000     0.140850000000     0.116912   
H19      H      0.709620000000     0.001930000000     0.234730000000     0.120809   
H20      H      0.596640000000     0.898010000000     0.236160000000     0.114124   
H21      H      0.990240000000     0.509220000000     0.390210000000     0.11271    
H22      H      0.113520000000     0.586760000000     0.389510000000     0.112839   
H23      H      0.113890000000     0.519380000000     0.138850000000     0.116486   
H24      H      0.990700000000     0.475110000000     0.139110000000     0.108926   
H25      H      0.954750000000     0.595510000000     0.050480000000     0.11616    
H26      H      0.065650000000     0.699120000000     0.062700000000     0.119819   
H27      H      0.432070000000     0.185870000000     0.480800000000     0.113868   
H28      H      0.312320000000     0.153490000000     0.472820000000     0.108778   
H29      H      0.445720000000     0.275470000000     0.229510000000     0.110171   
H30      H      0.324810000000     0.225290000000     0.227900000000     0.107797   
H31      H      0.544260000000     0.171670000000     0.319620000000     0.113751   
H32      H      0.431270000000     0.068490000000     0.314440000000     0.121703   
H33      H      0.196090000000     0.509740000000     0.460640000000     0.114489   
H34      H      0.099460000000     0.395530000000     0.478000000000     0.119348   
H35      H      0.393680000000     0.364480000000     0.389580000000     0.116942   
H36      H      0.283480000000     0.258950000000     0.386670000000     0.115347   
H37      H      0.534570000000     0.481390000000     0.406360000000     0.111733   
H38      H      0.474450000000     0.543770000000     0.407070000000     0.103377   
H39      H      0.616760000000     0.568350000000     0.155090000000     0.114932   
H40      H      0.533760000000     0.606860000000     0.163140000000     0.108443   
H41      H      0.890320000000     0.262010000000     0.480560000000     0.10836    
H42      H      0.966720000000     0.215960000000     0.482040000000     0.111211   
H43      H      0.914850000000     0.158920000000     0.230990000000     0.111425   
H44      H      0.863090000000     0.230330000000     0.233040000000     0.109321   
H45      H      0.240270000000     0.457590000000     0.300410000000     0.109177   
H46      H      0.176020000000     0.335880000000     0.313340000000     0.109598   
H47      H      0.277380000000     0.337430000000     0.060040000000     0.108607   
H48      H      0.343170000000     0.461070000000     0.054940000000     0.110379   
H49      H      0.079920000000     0.263090000000     0.141380000000     0.113571   
H50      H      0.093160000000     0.377310000000     0.132890000000     0.117229   
H51      H      0.403810000000     0.402250000000     0.232950000000     0.116488   
H52      H      0.401190000000     0.507420000000     0.246500000000     0.114376   
H53      H      0.634530000000     0.091440000000     0.403160000000     0.110137   
H54      H      0.557380000000     0.968550000000     0.401570000000     0.10984    
H55      H      0.585390000000     0.097160000000     0.152080000000     0.112106   
H56      H      0.517950000000     0.973130000000     0.152800000000     0.109311   
H57      H      0.741220000000     0.180770000000     0.071810000000     0.113911   
H58      H      0.743560000000     0.073140000000     0.069660000000     0.120274   
H59      H      0.226810000000     0.932000000000     0.310580000000     0.111084   
H60      H      0.305100000000     0.887120000000     0.313260000000     0.110039   
H61      H      0.181570000000     0.880370000000     0.060550000000     0.110821   
H62      H      0.247970000000     0.822090000000     0.062440000000     0.111283   
H63      H      0.409560000000     0.025590000000     0.482640000000     0.116766   
H64      H      0.406730000000     0.915580000000     0.488550000000     0.11616    
H65      H      0.922210000000     0.780760000000     0.477890000000     0.110867   
H66      H      0.865660000000     0.656680000000     0.477670000000     0.11285    
H67      H      0.934400000000     0.672750000000     0.226140000000     0.114942   
H68      H      0.967670000000     0.793210000000     0.230230000000     0.109791   
H69      H      0.737770000000     0.689110000000     0.320340000000     0.122218   
H70      H      0.746790000000     0.585570000000     0.312690000000     0.113508   
H71      H      0.075250000000     0.855890000000     0.393920000000     0.11433    
H72      H      0.084260000000     0.751700000000     0.393600000000     0.119177   
H73      H      0.869540000000     0.045190000000     0.897330000000     0.114117   
H74      H      0.755890000000     0.034430000000     0.898100000000     0.123099   
H75      H      0.905400000000     0.363880000000     0.812050000000     0.115117   
H76      H      0.020830000000     0.379360000000     0.810190000000     0.118077   
H77      H      0.173160000000     0.704510000000     0.729010000000     0.116534   
H78      H      0.062990000000     0.700800000000     0.720850000000     0.120406   
H79      H      0.595750000000     0.727440000000     0.006290000000     0.114      
H80      H      0.693310000000     0.709500000000     0.994430000000     0.118216   
H81      H      0.346940000000     0.040400000000     0.641510000000     0.119998   
H82      H      0.234800000000     0.032900000000     0.636170000000     0.112392   
H83      H      0.490460000000     0.376200000000     0.569740000000     0.114572   
H84      H      0.385620000000     0.382670000000     0.568960000000     0.120747   
H85      H      0.791620000000     0.864700000000     0.817140000000     0.111161   
H86      H      0.666950000000     0.809720000000     0.818490000000     0.110437   
H87      H      0.795680000000     0.933430000000     0.565790000000     0.112663   
H88      H      0.670970000000     0.867370000000     0.569120000000     0.110668   
H89      H      0.760480000000     0.726330000000     0.647880000000     0.116502   
H90      H      0.868400000000     0.835880000000     0.645080000000     0.11687    
H91      H      0.711930000000     0.003090000000     0.735070000000     0.120852   
H92      H      0.598380000000     0.899880000000     0.736390000000     0.114626   
H93      H      0.113500000000     0.620280000000     0.893370000000     0.11157    
H94      H      0.991700000000     0.555880000000     0.890830000000     0.107638   
H95      H      0.115290000000     0.537480000000     0.641750000000     0.113819   
H96      H      0.990920000000     0.467240000000     0.642190000000     0.111254   
H97      H      0.934830000000     0.573230000000     0.555750000000     0.115622   
H98      H      0.046470000000     0.678530000000     0.557810000000     0.119646   
H99      H      0.435250000000     0.187540000000     0.980400000000     0.11469    
H100     H      0.314840000000     0.152820000000     0.972650000000     0.109607   
H101     H      0.445340000000     0.276820000000     0.729230000000     0.109977   
H102     H      0.324500000000     0.226740000000     0.728430000000     0.107686   
H103     H      0.545890000000     0.173330000000     0.819390000000     0.113859   
H104     H      0.432900000000     0.070200000000     0.813380000000     0.121197   
H105     H      0.213270000000     0.524270000000     0.961450000000     0.113916   
H106     H      0.110750000000     0.412600000000     0.972050000000     0.118526   
H107     H      0.397650000000     0.365260000000     0.891460000000     0.117714   
H108     H      0.286110000000     0.261110000000     0.888990000000     0.115287   
H109     H      0.533990000000     0.479640000000     0.905950000000     0.11172    
H110     H      0.474230000000     0.542260000000     0.906590000000     0.10163    
H111     H      0.617920000000     0.568440000000     0.654950000000     0.11468    
H112     H      0.535440000000     0.607560000000     0.663680000000     0.108622   
H113     H      0.877870000000     0.256470000000     0.981680000000     0.109672   
H114     H      0.958670000000     0.215980000000     0.979450000000     0.112213   
H115     H      0.902110000000     0.155160000000     0.731420000000     0.11223    
H116     H      0.855900000000     0.231520000000     0.731070000000     0.108208   
H117     H      0.251030000000     0.464730000000     0.799740000000     0.109238   
H118     H      0.183530000000     0.343710000000     0.814640000000     0.110501   
H119     H      0.271660000000     0.331940000000     0.559990000000     0.10873    
H120     H      0.338420000000     0.455330000000     0.552980000000     0.112798   
H121     H      0.077810000000     0.262900000000     0.648490000000     0.113925   
H122     H      0.093000000000     0.377390000000     0.635590000000     0.118069   
H123     H      0.405900000000     0.402920000000     0.730700000000     0.116713   
H124     H      0.403440000000     0.508320000000     0.743570000000     0.114435   
H125     H      0.637060000000     0.092110000000     0.904010000000     0.109472   
H126     H      0.558920000000     0.969430000000     0.901710000000     0.110055   
H127     H      0.588550000000     0.099170000000     0.652380000000     0.112184   
H128     H      0.520960000000     0.975200000000     0.653220000000     0.110064   
H129     H      0.743970000000     0.182760000000     0.566890000000     0.113801   
H130     H      0.745360000000     0.074600000000     0.566570000000     0.120386   
H131     H      0.221010000000     0.930580000000     0.811450000000     0.110714   
H132     H      0.300190000000     0.886500000000     0.810790000000     0.110898   
H133     H      0.176930000000     0.885270000000     0.559450000000     0.110362   
H134     H      0.233630000000     0.817290000000     0.562760000000     0.113193   
H135     H      0.409350000000     0.024460000000     0.981470000000     0.117673   
H136     H      0.408170000000     0.915120000000     0.985550000000     0.116836   
H137     H      0.931730000000     0.786780000000     0.976170000000     0.110921   
H138     H      0.872860000000     0.662580000000     0.980080000000     0.113979   
H139     H      0.919430000000     0.658210000000     0.726100000000     0.113348   
H140     H      0.963600000000     0.780920000000     0.728060000000     0.10972    
H141     H      0.738160000000     0.686910000000     0.822310000000     0.121822   
H142     H      0.745100000000     0.582020000000     0.816790000000     0.113455   
H143     H      0.077200000000     0.852400000000     0.890360000000     0.114866   
H144     H      0.085280000000     0.747740000000     0.892840000000     0.118758   
N1       N      0.846650000000     0.057710000000     0.393970000000    -0.190037   
N2       N      0.790550000000     0.022680000000     0.402690000000    -0.190329   
N3       N      0.953120000000     0.354320000000     0.315340000000    -0.190325   
N4       N      0.007420000000     0.388690000000     0.302120000000    -0.191025   
N5       N      0.163840000000     0.722330000000     0.223560000000    -0.188906   
N6       N      0.106960000000     0.687620000000     0.230440000000    -0.18907    
N7       N      0.616030000000     0.704310000000     0.504810000000    -0.189284   
N8       N      0.669770000000     0.727550000000     0.488960000000    -0.18928    
N9       N      0.309540000000     0.024130000000     0.146080000000    -0.189765   
N10      N      0.281250000000     0.051560000000     0.133900000000    -0.188866   
N11      N      0.449040000000     0.360530000000     0.071310000000    -0.187209   
N12      N      0.428050000000     0.396190000000     0.064070000000    -0.188655   
N13      N      0.754750000000     0.844890000000     0.304700000000    -0.189367   
N14      N      0.709000000000     0.826200000000     0.330640000000    -0.189498   
N15      N      0.753480000000     0.917550000000     0.054090000000    -0.189162   
N16      N      0.709020000000     0.889830000000     0.080900000000    -0.189951   
N17      N      0.791240000000     0.772730000000     0.151030000000    -0.188178   
N18      N      0.846970000000     0.799500000000     0.139090000000    -0.189421   
N19      N      0.680980000000     0.960130000000     0.230770000000    -0.190508   
N20      N      0.625250000000     0.939780000000     0.240270000000    -0.190091   
N21      N      0.028330000000     0.536900000000     0.402920000000    -0.190582   
N22      N      0.073780000000     0.568700000000     0.377540000000    -0.189694   
N23      N      0.074690000000     0.502380000000     0.126060000000    -0.190687   
N24      N      0.029750000000     0.489310000000     0.151540000000    -0.190679   
N25      N      0.997730000000     0.618880000000     0.051170000000    -0.187367   
N26      N      0.023080000000     0.673490000000     0.065250000000    -0.191442   
N27      N      0.394200000000     0.169290000000     0.465970000000    -0.188847   
N28      N      0.348360000000     0.162240000000     0.488140000000    -0.188933   
N29      N      0.406990000000     0.245740000000     0.240100000000    -0.187284   
N30      N      0.361230000000     0.230580000000     0.215200000000    -0.187793   
N31      N      0.515970000000     0.130080000000     0.314370000000    -0.18959    
N32      N      0.459470000000     0.109900000000     0.320450000000    -0.189981   
N33      N      0.176000000000     0.466810000000     0.463440000000    -0.189835   
N34      N      0.122380000000     0.438560000000     0.479310000000    -0.18916    
N35      N      0.352300000000     0.338200000000     0.396770000000    -0.189044   
N36      N      0.326470000000     0.282330000000     0.385960000000    -0.190201   
N37      N      0.529000000000     0.513430000000     0.395740000000    -0.186564   
N38      N      0.500680000000     0.531860000000     0.420360000000    -0.18638    
N39      N      0.596820000000     0.586440000000     0.169850000000    -0.188876   
N40      N      0.557970000000     0.593860000000     0.148010000000    -0.188707   
N41      N      0.919400000000     0.253440000000     0.467970000000    -0.189563   
N42      N      0.950810000000     0.239870000000     0.493630000000    -0.189149   
N43      N      0.888790000000     0.171680000000     0.243420000000    -0.189533   
N44      N      0.873380000000     0.203090000000     0.219270000000    -0.190161   
N45      N      0.226970000000     0.416980000000     0.291620000000    -0.188831   
N46      N      0.207390000000     0.375470000000     0.321010000000    -0.188419   
N47      N      0.288620000000     0.376920000000     0.070460000000    -0.188934   
N48      N      0.314710000000     0.422180000000     0.043870000000    -0.186642   
N49      N      0.066140000000     0.291210000000     0.137100000000    -0.187681   
N50      N      0.103590000000     0.348070000000     0.142250000000    -0.188476   
N51      N      0.393250000000     0.432220000000     0.226070000000    -0.188575   
N52      N      0.420360000000     0.483560000000     0.245480000000    -0.190379   
N53      N      0.616600000000     0.051570000000     0.415070000000    -0.190217   
N54      N      0.586620000000     0.006410000000     0.389270000000    -0.190376   
N55      N      0.557130000000     0.059110000000     0.164680000000    -0.190154   
N56      N      0.533000000000     0.012080000000     0.139780000000    -0.189946   
N57      N      0.758500000000     0.155410000000     0.074690000000    -0.189377   
N58      N      0.726780000000     0.098790000000     0.065690000000    -0.189579   
N59      N      0.254430000000     0.921040000000     0.298520000000    -0.189799   
N60      N      0.285960000000     0.908110000000     0.324690000000    -0.189365   
N61      N      0.199670000000     0.858830000000     0.048280000000    -0.188833   
N62      N      0.221370000000     0.834590000000     0.074200000000    -0.190077   
N63      N      0.393720000000     0.983260000000     0.478860000000    -0.188417   
N64      N      0.424490000000     0.958380000000     0.490890000000    -0.189226   
N65      N      0.898230000000     0.741660000000     0.490640000000    -0.189872   
N66      N      0.875280000000     0.694920000000     0.465450000000    -0.189754   
N67      N      0.953010000000     0.713210000000     0.215300000000    -0.190798   
N68      N      0.960350000000     0.755410000000     0.241880000000    -0.190714   
N69      N      0.723810000000     0.647450000000     0.314640000000    -0.189496   
N70      N      0.760510000000     0.627200000000     0.318260000000    -0.188983   
N71      N      0.061940000000     0.814120000000     0.389410000000    -0.189365   
N72      N      0.097420000000     0.793450000000     0.397980000000    -0.190304   
N73      N      0.840430000000     0.057570000000     0.892830000000    -0.189884   
N74      N      0.784670000000     0.021450000000     0.901900000000    -0.190495   
N75      N      0.935630000000     0.352880000000     0.816060000000    -0.191073   
N76      N      0.990240000000     0.389510000000     0.804810000000    -0.188311   
N77      N      0.147340000000     0.720720000000     0.723430000000    -0.188356   
N78      N      0.089900000000     0.686690000000     0.728660000000    -0.188723   
N79      N      0.615430000000     0.704100000000     0.005220000000    -0.190691   
N80      N      0.669250000000     0.727800000000     0.989450000000    -0.188288   
N81      N      0.304540000000     0.022740000000     0.645840000000    -0.189395   
N82      N      0.277600000000     0.051680000000     0.634030000000    -0.188662   
N83      N      0.448040000000     0.360740000000     0.571600000000    -0.186792   
N84      N      0.427420000000     0.396800000000     0.564650000000    -0.188114   
N85      N      0.751960000000     0.842690000000     0.805070000000    -0.189453   
N86      N      0.706150000000     0.824660000000     0.830850000000    -0.18944    
N87      N      0.755770000000     0.916830000000     0.554370000000    -0.190029   
N88      N      0.710770000000     0.890100000000     0.580860000000    -0.189794   
N89      N      0.787010000000     0.768500000000     0.652290000000    -0.188485   
N90      N      0.843100000000     0.793270000000     0.641660000000    -0.189533   
N91      N      0.682890000000     0.961450000000     0.730920000000    -0.190553   
N92      N      0.627270000000     0.941570000000     0.740540000000    -0.190152   
N93      N      0.076120000000     0.587910000000     0.903890000000    -0.188401   
N94      N      0.030120000000     0.566720000000     0.878560000000    -0.190525   
N95      N      0.076520000000     0.510440000000     0.629710000000    -0.190156   
N96      N      0.030160000000     0.488820000000     0.655020000000    -0.190587   
N97      N      0.977380000000     0.597490000000     0.551800000000    -0.187438   
N98      N      0.004070000000     0.653750000000     0.562130000000    -0.191628   
N99      N      0.397300000000     0.170460000000     0.965640000000    -0.188764   
N100     N      0.351130000000     0.162250000000     0.987910000000    -0.187341   
N101     N      0.406780000000     0.247120000000     0.740110000000    -0.18718    
N102     N      0.360660000000     0.231650000000     0.715520000000    -0.187628   
N103     N      0.517660000000     0.131750000000     0.814060000000    -0.189612   
N104     N      0.461050000000     0.111570000000     0.819550000000    -0.189853   
N105     N      0.191000000000     0.481220000000     0.963270000000    -0.190167   
N106     N      0.136200000000     0.454970000000     0.976540000000    -0.189113   
N107     N      0.356040000000     0.339890000000     0.898460000000    -0.189136   
N108     N      0.329090000000     0.284000000000     0.887670000000    -0.189931   
N109     N      0.528670000000     0.511830000000     0.895320000000    -0.186597   
N110     N      0.500640000000     0.530620000000     0.919920000000    -0.186023   
N111     N      0.598230000000     0.586630000000     0.669910000000    -0.188691   
N112     N      0.559310000000     0.594320000000     0.648350000000    -0.188711   
N113     N      0.907870000000     0.250290000000     0.967900000000    -0.189737   
N114     N      0.942330000000     0.238960000000     0.992040000000    -0.187442   
N115     N      0.877170000000     0.169850000000     0.742970000000    -0.189653   
N116     N      0.865880000000     0.203650000000     0.718000000000    -0.190227   
N117     N      0.236000000000     0.423560000000     0.791640000000    -0.188875   
N118     N      0.216030000000     0.383000000000     0.821680000000    -0.188481   
N119     N      0.283760000000     0.371850000000     0.569880000000    -0.188854   
N120     N      0.309160000000     0.416320000000     0.542580000000    -0.188266   
N121     N      0.064900000000     0.291320000000     0.642350000000    -0.187417   
N122     N      0.103230000000     0.348290000000     0.645650000000    -0.188329   
N123     N      0.395500000000     0.432910000000     0.723520000000    -0.188609   
N124     N      0.422360000000     0.484200000000     0.743030000000    -0.190308   
N125     N      0.618690000000     0.052090000000     0.915690000000    -0.189794   
N126     N      0.588330000000     0.007360000000     0.889610000000    -0.190423   
N127     N      0.560140000000     0.061190000000     0.665000000000    -0.189957   
N128     N      0.535900000000     0.014120000000     0.640160000000    -0.189965   
N129     N      0.760790000000     0.157120000000     0.570740000000    -0.188942   
N130     N      0.728560000000     0.100250000000     0.562710000000    -0.189241   
N131     N      0.247880000000     0.919350000000     0.798370000000    -0.189868   
N132     N      0.281090000000     0.906970000000     0.823230000000    -0.189539   
N133     N      0.193480000000     0.862050000000     0.547660000000    -0.19003    
N134     N      0.209550000000     0.833190000000     0.573970000000    -0.190119   
N135     N      0.394240000000     0.982390000000     0.976870000000    -0.188386   
N136     N      0.425410000000     0.957800000000     0.988500000000    -0.187783   
N137     N      0.908000000000     0.748580000000     0.990250000000    -0.188123   
N138     N      0.882520000000     0.700200000000     0.966720000000    -0.189482   
N139     N      0.941260000000     0.698240000000     0.714480000000    -0.190133   
N140     N      0.954620000000     0.742920000000     0.740380000000    -0.190107   
N141     N      0.723840000000     0.645190000000     0.816560000000    -0.189534   
N142     N      0.759630000000     0.624020000000     0.821330000000    -0.189075   
N143     N      0.063420000000     0.810350000000     0.887000000000    -0.189592   
N144     N      0.098120000000     0.789400000000     0.897370000000    -0.190122   
O1       O      0.893620000000     0.668070000000     0.405850000000    -0.560242   
O2       O      0.941570000000     0.701240000000     0.297530000000    -0.555257   
O3       O      0.991510000000     0.729980000000     0.369800000000    -0.548606   
O4       O      0.844570000000     0.639230000000     0.333950000000    -0.561469   
O5       O      0.831890000000     0.711830000000     0.336690000000    -0.550759   
O6       O      0.979670000000     0.803210000000     0.370410000000    -0.563195   
O7       O      0.929760000000     0.774460000000     0.299440000000    -0.564152   
O8       O      0.884970000000     0.743190000000     0.408180000000    -0.559803   
O9       O      0.226220000000     0.839530000000     0.492380000000    -0.559117   
O10      O      0.279140000000     0.867400000000     0.385070000000    -0.562714   
O11      O      0.324340000000     0.899790000000     0.458120000000    -0.562464   
O12      O      0.180060000000     0.806450000000     0.419330000000    -0.560939   
O13      O      0.165970000000     0.878210000000     0.417570000000    -0.555787   
O14      O      0.312280000000     0.972640000000     0.454530000000    -0.544609   
O15      O      0.262270000000     0.937290000000     0.381400000000    -0.552913   
O16      O      0.212660000000     0.911610000000     0.489740000000    -0.55725    
O17      O      0.594950000000     0.000760000000     0.472650000000    -0.558892   
O18      O      0.549070000000     0.979130000000     0.081990000000    -0.562475   
O19      O      0.499870000000     0.956660000000     0.511440000000    -0.573501   
O20      O      0.647550000000     0.023780000000     0.045250000000    -0.561281   
O21      O      0.652140000000     0.105760000000     0.046400000000    -0.54848    
O22      O      0.503570000000     0.038230000000     0.509480000000    -0.538767   
O23      O      0.554060000000     0.061360000000     0.081690000000    -0.555573   
O24      O      0.603220000000     0.084430000000     0.473510000000    -0.562056   
O25      O      0.221320000000     0.358490000000     0.240920000000    -0.542996   
O26      O      0.255680000000     0.340560000000     0.132580000000    -0.556434   
O27      O      0.309510000000     0.366910000000     0.203370000000    -0.557192   
O28      O      0.166010000000     0.328530000000     0.170020000000    -0.560828   
O29      O      0.192310000000     0.416220000000     0.155940000000    -0.546124   
O30      O      0.336050000000     0.455700000000     0.193580000000    -0.550121   
O31      O      0.285200000000     0.429700000000     0.121190000000    -0.555497   
O32      O      0.246610000000     0.446140000000     0.227180000000    -0.566088   
O33      O      0.931310000000     0.194050000000     0.050830000000    -0.566295   
O34      O      0.889910000000     0.172380000000     0.160510000000    -0.55956    
O35      O      0.834780000000     0.149310000000     0.090170000000    -0.55281    
O36      O      0.984700000000     0.216930000000     0.120780000000    -0.564654   
O37      O      0.990770000000     0.299610000000     0.120700000000    -0.535334   
O38      O      0.838730000000     0.230940000000     0.092960000000    -0.557682   
O39      O      0.894490000000     0.254390000000     0.162090000000    -0.555315   
O40      O      0.931350000000     0.273920000000     0.050980000000    -0.550437   
O41      O      0.597100000000     0.541680000000     0.226050000000    -0.56199    
O42      O      0.553540000000     0.499990000000     0.333750000000    -0.561951   
O43      O      0.499420000000     0.481480000000     0.261990000000    -0.53693    
O44      O      0.650020000000     0.563600000000     0.296560000000    -0.542814   
O45      O      0.640450000000     0.637890000000     0.302010000000    -0.564661   
O46      O      0.491160000000     0.555310000000     0.275030000000    -0.580242   
O47      O      0.546410000000     0.575040000000     0.343980000000    -0.5388     
O48      O      0.581200000000     0.611940000000     0.232280000000    -0.544604   
O49      O      0.269450000000     0.430940000000     0.369250000000    -0.541638   
O50      O      0.320740000000     0.449830000000     0.478260000000    -0.550817   
O51      O      0.341870000000     0.411960000000     0.409790000000    -0.558658   
O52      O      0.252500000000     0.472230000000     0.437400000000    -0.57106    
O53      O      0.183150000000     0.389080000000     0.454310000000    -0.544035   
O54      O      0.271940000000     0.327500000000     0.422720000000    -0.551494   
O55      O      0.252770000000     0.364600000000     0.492020000000    -0.559193   
O56      O      0.199950000000     0.347630000000     0.385630000000    -0.568646   
O57      O      0.439810000000     0.216850000000     0.410740000000    -0.563727   
O58      O      0.442690000000     0.259020000000     0.302650000000    -0.56616    
O59      O      0.406150000000     0.279890000000     0.372600000000    -0.538637   
O60      O      0.471440000000     0.193610000000     0.340910000000    -0.545197   
O61      O      0.386870000000     0.121110000000     0.333890000000    -0.565306   
O62      O      0.323210000000     0.206750000000     0.361000000000    -0.578645   
O63      O      0.359030000000     0.186460000000     0.292040000000    -0.539686   
O64      O      0.353730000000     0.147130000000     0.403360000000    -0.545943   
O65      O      0.079320000000     0.568980000000     0.460090000000    -0.555768   
O66      O      0.115350000000     0.554850000000     0.071660000000    -0.568839   
O67      O      0.126860000000     0.519540000000     0.497170000000    -0.553172   
O68      O      0.078070000000     0.617800000000     0.037800000000    -0.53858    
O69      O      0.995830000000     0.544050000000     0.025480000000    -0.569631   
O70      O      0.046930000000     0.440590000000     0.502060000000    -0.555556   
O71      O      0.029520000000     0.484240000000     0.065330000000    -0.546375   
O72      O      0.999280000000     0.489700000000     0.462160000000    -0.551321   
O73      O      0.764380000000     0.913830000000     0.136420000000    -0.556708   
O74      O      0.788640000000     0.887260000000     0.244630000000    -0.560266   
O75      O      0.803080000000     0.855120000000     0.172010000000    -0.566904   
O76      O      0.750390000000     0.947380000000     0.209140000000    -0.564018   
O77      O      0.665050000000     0.875090000000     0.211460000000    -0.552784   
O78      O      0.718790000000     0.781550000000     0.174660000000    -0.542055   
O79      O      0.702730000000     0.816040000000     0.247630000000    -0.552853   
O80      O      0.679020000000     0.841650000000     0.139300000000    -0.557946   
O81      O      0.980680000000     0.765980000000     0.158420000000    -0.557773   
O82      O      0.956550000000     0.784410000000     0.048140000000    -0.557923   
O83      O      0.926060000000     0.805710000000     0.118750000000    -0.573468   
O84      O      0.014670000000     0.745930000000     0.087300000000    -0.561189   
O85      O      0.939790000000     0.662340000000     0.084280000000    -0.55355    
O86      O      0.851310000000     0.721900000000     0.121410000000    -0.540895   
O87      O      0.881170000000     0.700920000000     0.048830000000    -0.561444   
O88      O      0.909450000000     0.679860000000     0.156260000000    -0.567088   
O89      O      0.621840000000     0.056490000000     0.331970000000    -0.559126   
O90      O      0.604230000000     0.086490000000     0.223460000000    -0.561142   
O91      O      0.586660000000     0.117660000000     0.295390000000    -0.563391   
O92      O      0.640300000000     0.024590000000     0.259660000000    -0.552216   
O93      O      0.555050000000     0.951970000000     0.260340000000    -0.566496   
O94      O      0.501270000000     0.045370000000     0.294700000000    -0.552571   
O95      O      0.520110000000     0.012060000000     0.222740000000    -0.559158   
O96      O      0.536970000000     0.983170000000     0.331570000000    -0.564023   
O97      O      0.325220000000     0.223030000000     0.152790000000    -0.558747   
O98      O      0.318120000000     0.185280000000     0.042520000000    -0.557114   
O99      O      0.282470000000     0.129430000000     0.111800000000    -0.551493   
O100     O      0.364580000000     0.282590000000     0.083440000000    -0.53436    
O101     O      0.442280000000     0.279560000000     0.089590000000    -0.563279   
O102     O      0.361510000000     0.129020000000     0.118120000000    -0.556911   
O103     O      0.397090000000     0.184600000000     0.048280000000    -0.548713   
O104     O      0.404550000000     0.223110000000     0.159210000000    -0.545254   
O105     O      0.502860000000     0.575510000000     0.093140000000    -0.559839   
O106     O      0.473800000000     0.544040000000     0.482360000000    -0.558515   
O107     O      0.441100000000     0.481930000000     0.050380000000    -0.554478   
O108     O      0.534800000000     0.633720000000     0.525580000000    -0.56805    
O109     O      0.606070000000     0.619640000000     0.518570000000    -0.542355   
O110     O      0.513080000000     0.468740000000     0.047430000000    -0.544325   
O111     O      0.543390000000     0.527050000000     0.477700000000    -0.540004   
O112     O      0.575530000000     0.563410000000     0.088590000000    -0.542006   
O113     O      0.205680000000     0.898510000000     0.240020000000    -0.554911   
O114     O      0.186240000000     0.850470000000     0.131240000000    -0.551751   
O115     O      0.158680000000     0.798430000000     0.203780000000    -0.540007   
O116     O      0.231350000000     0.947580000000     0.167530000000    -0.552458   
O117     O      0.311680000000     0.949050000000     0.169450000000    -0.561039   
O118     O      0.239760000000     0.801440000000     0.205870000000    -0.57039    
O119     O      0.265570000000     0.849940000000     0.133920000000    -0.565198   
O120     O      0.285610000000     0.899160000000     0.242070000000    -0.56064    
O121     O      0.999090000000     0.504960000000     0.210820000000    -0.552857   
O122     O      0.022070000000     0.548500000000     0.320540000000    -0.555338   
O123     O      0.036180000000     0.602550000000     0.249400000000    -0.547976   
O124     O      0.987710000000     0.454720000000     0.281840000000    -0.550965   
O125     O      0.074160000000     0.471140000000     0.278550000000    -0.563764   
O126     O      0.121720000000     0.616860000000     0.245210000000    -0.566093   
O127     O      0.109200000000     0.567130000000     0.316360000000    -0.560068   
O128     O      0.085220000000     0.520670000000     0.207120000000    -0.554628   
O129     O      0.850660000000     0.179400000000     0.301730000000    -0.558491   
O130     O      0.868290000000     0.225340000000     0.410790000000    -0.561581   
O131     O      0.884930000000     0.273790000000     0.339280000000    -0.57167    
O132     O      0.832030000000     0.127380000000     0.373960000000    -0.557334   
O133     O      0.917460000000     0.140700000000     0.374610000000    -0.562718   
O134     O      0.970240000000     0.286780000000     0.337180000000    -0.551394   
O135     O      0.953490000000     0.237920000000     0.410380000000    -0.555725   
O136     O      0.934430000000     0.188370000000     0.302430000000    -0.563306   
O137     O      0.702710000000     0.893510000000     0.497640000000    -0.557288   
O138     O      0.677650000000     0.842600000000     0.389310000000    -0.559805   
O139     O      0.660520000000     0.796740000000     0.462370000000    -0.571923   
O140     O      0.719400000000     0.941890000000     0.424480000000    -0.56543    
O141     O      0.803240000000     0.951270000000     0.421760000000    -0.550393   
O142     O      0.743540000000     0.804250000000     0.461420000000    -0.545135   
O143     O      0.761630000000     0.852270000000     0.387420000000    -0.55574    
O144     O      0.787380000000     0.904970000000     0.494700000000    -0.559816   
O145     O      0.895960000000     0.668110000000     0.907720000000    -0.560802   
O146     O      0.938380000000     0.692660000000     0.797900000000    -0.553411   
O147     O      0.992060000000     0.725850000000     0.868970000000    -0.548487   
O148     O      0.843240000000     0.635010000000     0.837180000000    -0.561711   
O149     O      0.832390000000     0.708810000000     0.837650000000    -0.551843   
O150     O      0.981730000000     0.799990000000     0.867410000000    -0.564755   
O151     O      0.928690000000     0.767220000000     0.797790000000    -0.564733   
O152     O      0.888960000000     0.744230000000     0.907810000000    -0.55931    
O153     O      0.230130000000     0.836890000000     0.991470000000    -0.554336   
O154     O      0.278010000000     0.866330000000     0.882940000000    -0.563089   
O155     O      0.326020000000     0.898970000000     0.955190000000    -0.563879   
O156     O      0.180950000000     0.803280000000     0.919090000000    -0.560439   
O157     O      0.165150000000     0.873970000000     0.918490000000    -0.556494   
O158     O      0.311690000000     0.970490000000     0.953920000000    -0.545118   
O159     O      0.259710000000     0.935370000000     0.881330000000    -0.553643   
O160     O      0.213580000000     0.907100000000     0.990330000000    -0.554711   
O161     O      0.596180000000     0.000740000000     0.973060000000    -0.556295   
O162     O      0.550930000000     0.980730000000     0.582210000000    -0.563361   
O163     O      0.500150000000     0.956010000000     0.010360000000    -0.575145   
O164     O      0.648430000000     0.024840000000     0.543970000000    -0.560226   
O165     O      0.653190000000     0.106890000000     0.545000000000    -0.548131   
O166     O      0.503650000000     0.037490000000     0.008480000000    -0.539226   
O167     O      0.556100000000     0.063040000000     0.581920000000    -0.555738   
O168     O      0.604310000000     0.084340000000     0.974060000000    -0.559654   
O169     O      0.225690000000     0.362150000000     0.741820000000    -0.542912   
O170     O      0.253500000000     0.338220000000     0.633100000000    -0.556001   
O171     O      0.311090000000     0.367380000000     0.702310000000    -0.557518   
O172     O      0.166380000000     0.329180000000     0.672650000000    -0.561029   
O173     O      0.192890000000     0.416370000000     0.656700000000    -0.544772   
O174     O      0.338100000000     0.455940000000     0.690830000000    -0.550066   
O175     O      0.283450000000     0.427030000000     0.619930000000    -0.55658    
O176     O      0.251300000000     0.449390000000     0.726310000000    -0.565312   
O177     O      0.935430000000     0.194710000000     0.552850000000    -0.565543   
O178     O      0.886210000000     0.173100000000     0.660760000000    -0.559991   
O179     O      0.836160000000     0.150520000000     0.588570000000    -0.551459   
O180     O      0.983850000000     0.217200000000     0.624830000000    -0.563392   
O181     O      0.990870000000     0.300250000000     0.622710000000    -0.535038   
O182     O      0.840690000000     0.232470000000     0.589910000000    -0.557833   
O183     O      0.892020000000     0.255670000000     0.660920000000    -0.554262   
O184     O      0.936040000000     0.274830000000     0.551180000000    -0.552029   
O185     O      0.598680000000     0.541650000000     0.725980000000    -0.561171   
O186     O      0.553170000000     0.498440000000     0.833260000000    -0.561371   
O187     O      0.500470000000     0.481230000000     0.760900000000    -0.537692   
O188     O      0.650240000000     0.562090000000     0.797130000000    -0.543727   
O189     O      0.641180000000     0.636670000000     0.802650000000    -0.564103   
O190     O      0.492240000000     0.555010000000     0.774250000000    -0.579475   
O191     O      0.546490000000     0.573700000000     0.843730000000    -0.539343   
O192     O      0.582890000000     0.611950000000     0.732450000000    -0.544847   
O193     O      0.279550000000     0.437880000000     0.869630000000    -0.539289   
O194     O      0.329450000000     0.455840000000     0.979280000000    -0.545025   
O195     O      0.348980000000     0.415510000000     0.911190000000    -0.560589   
O196     O      0.265340000000     0.482260000000     0.937340000000    -0.573888   
O197     O      0.193390000000     0.400820000000     0.954380000000    -0.543603   
O198     O      0.276610000000     0.332430000000     0.923860000000    -0.549871   
O199     O      0.259170000000     0.371750000000     0.992740000000    -0.558085   
O200     O      0.207600000000     0.356320000000     0.886430000000    -0.571548   
O201     O      0.442280000000     0.218190000000     0.910270000000    -0.563849   
O202     O      0.443500000000     0.260420000000     0.802360000000    -0.566076   
O203     O      0.408130000000     0.281190000000     0.872900000000    -0.54036    
O204     O      0.472990000000     0.195170000000     0.840060000000    -0.546693   
O205     O      0.388370000000     0.122690000000     0.833220000000    -0.563984   
O206     O      0.324890000000     0.208150000000     0.861980000000    -0.576081   
O207     O      0.359580000000     0.188010000000     0.792300000000    -0.539571   
O208     O      0.356200000000     0.148320000000     0.903290000000    -0.545543   
O209     O      0.112960000000     0.601310000000     0.965920000000    -0.567916   
O210     O      0.107150000000     0.550650000000     0.568820000000    -0.561083   
O211     O      0.145040000000     0.536110000000     0.999710000000    -0.548052   
O212     O      0.056560000000     0.598720000000     0.532060000000    -0.543591   
O213     O      0.976150000000     0.519750000000     0.532550000000    -0.565089   
O214     O      0.061700000000     0.461300000000     0.994510000000    -0.557481   
O215     O      0.024940000000     0.474110000000     0.572750000000    -0.556142   
O216     O      0.031010000000     0.526310000000     0.955200000000    -0.538207   
O217     O      0.765200000000     0.912810000000     0.636790000000    -0.556851   
O218     O      0.787050000000     0.884920000000     0.745190000000    -0.560797   
O219     O      0.801150000000     0.851960000000     0.672800000000    -0.565649   
O220     O      0.751430000000     0.947080000000     0.709360000000    -0.562887   
O221     O      0.665330000000     0.876090000000     0.711250000000    -0.554782   
O222     O      0.715860000000     0.779910000000     0.674970000000    -0.543916   
O223     O      0.700350000000     0.815110000000     0.747750000000    -0.553497   
O224     O      0.678960000000     0.842130000000     0.639200000000    -0.558307   
O225     O      0.971320000000     0.750020000000     0.657370000000    -0.559974   
O226     O      0.946730000000     0.773770000000     0.548690000000    -0.562271   
O227     O      0.920120000000     0.795420000000     0.620560000000    -0.574573   
O228     O      0.000660000000     0.728660000000     0.584750000000    -0.562359   
O229     O      0.923250000000     0.646940000000     0.582940000000    -0.552856   
O230     O      0.842290000000     0.713940000000     0.621500000000    -0.541189   
O231     O      0.869640000000     0.691590000000     0.548250000000    -0.557449   
O232     O      0.895930000000     0.666570000000     0.655600000000    -0.563231   
O233     O      0.623730000000     0.058030000000     0.832540000000    -0.559389   
O234     O      0.606810000000     0.088510000000     0.723960000000    -0.560397   
O235     O      0.588660000000     0.119350000000     0.795840000000    -0.563066   
O236     O      0.642620000000     0.026430000000     0.760210000000    -0.550876   
O237     O      0.557300000000     0.953910000000     0.760680000000    -0.567754   
O238     O      0.503270000000     0.047060000000     0.794770000000    -0.553883   
O239     O      0.522680000000     0.014100000000     0.722970000000    -0.558869   
O240     O      0.538810000000     0.984820000000     0.831840000000    -0.564492   
O241     O      0.324030000000     0.223790000000     0.653260000000    -0.558444   
O242     O      0.316030000000     0.185970000000     0.542860000000    -0.555973   
O243     O      0.280230000000     0.130220000000     0.612160000000    -0.552127   
O244     O      0.363350000000     0.283240000000     0.583890000000    -0.534118   
O245     O      0.440600000000     0.279280000000     0.589620000000    -0.560908   
O246     O      0.358680000000     0.128620000000     0.618460000000    -0.553719   
O247     O      0.394370000000     0.184040000000     0.548480000000    -0.547693   
O248     O      0.403000000000     0.223100000000     0.659360000000    -0.544822   
O249     O      0.503810000000     0.576400000000     0.593720000000    -0.558844   
O250     O      0.473830000000     0.543160000000     0.981770000000    -0.557962   
O251     O      0.440990000000     0.482820000000     0.551090000000    -0.553245   
O252     O      0.534130000000     0.632950000000     0.025170000000    -0.569943   
O253     O      0.605820000000     0.619490000000     0.018430000000    -0.543388   
O254     O      0.512590000000     0.469010000000     0.547760000000    -0.543736   
O255     O      0.543800000000     0.526730000000     0.977360000000    -0.536555   
O256     O      0.575990000000     0.563570000000     0.588780000000    -0.543367   
O257     O      0.197830000000     0.898500000000     0.740340000000    -0.551814   
O258     O      0.176250000000     0.851830000000     0.630920000000    -0.550783   
O259     O      0.146210000000     0.798850000000     0.703200000000    -0.538481   
O260     O      0.225100000000     0.948380000000     0.668020000000    -0.551729   
O261     O      0.303220000000     0.945440000000     0.668570000000    -0.559447   
O262     O      0.225360000000     0.797990000000     0.705780000000    -0.569117   
O263     O      0.252660000000     0.845770000000     0.633700000000    -0.568281   
O264     O      0.276270000000     0.896180000000     0.741270000000    -0.563782   
O265     O      0.990140000000     0.502390000000     0.709380000000    -0.564197   
O266     O      0.992080000000     0.547430000000     0.816570000000    -0.569609   
O267     O      0.017490000000     0.600370000000     0.744460000000    -0.545926   
O268     O      0.969130000000     0.453610000000     0.781390000000    -0.549261   
O269     O      0.056720000000     0.473480000000     0.784630000000    -0.566654   
O270     O      0.104030000000     0.618920000000     0.752430000000    -0.568497   
O271     O      0.078800000000     0.565580000000     0.823520000000    -0.545621   
O272     O      0.078680000000     0.525780000000     0.713410000000    -0.546525   
O273     O      0.838690000000     0.177450000000     0.801260000000    -0.556752   
O274     O      0.855900000000     0.222060000000     0.910920000000    -0.55798    
O275     O      0.869520000000     0.270780000000     0.839550000000    -0.571274   
O276     O      0.822640000000     0.125220000000     0.873250000000    -0.55769    
O277     O      0.909240000000     0.141820000000     0.873410000000    -0.562734   
O278     O      0.955980000000     0.287080000000     0.836690000000    -0.553198   
O279     O      0.942390000000     0.238250000000     0.909390000000    -0.559067   
O280     O      0.923660000000     0.189380000000     0.801580000000    -0.566358   
O281     O      0.699700000000     0.892730000000     0.997650000000    -0.553597   
O282     O      0.674590000000     0.841150000000     0.889420000000    -0.55963    
O283     O      0.658670000000     0.795950000000     0.962580000000    -0.573262   
O284     O      0.714960000000     0.940370000000     0.924330000000    -0.567094   
O285     O      0.799410000000     0.951330000000     0.921110000000    -0.549578   
O286     O      0.742340000000     0.805010000000     0.961720000000    -0.544382   
O287     O      0.759030000000     0.851970000000     0.887470000000    -0.555762   
O288     O      0.785060000000     0.906070000000     0.994320000000    -0.556466   
V1       V      0.918380000000     0.681720000000     0.351680000000     1.40654    
V2       V      0.905680000000     0.760860000000     0.353620000000     1.41257    
V3       V      0.253030000000     0.850490000000     0.438820000000     1.4152     
V4       V      0.238100000000     0.928120000000     0.435740000000     1.3901     
V5       V      0.573570000000     0.987610000000     0.527630000000     1.4259     
V6       V      0.578490000000     0.075500000000     0.027630000000     1.37883    
V7       V      0.236810000000     0.345010000000     0.187160000000     1.3965     
V8       V      0.266050000000     0.440430000000     0.173770000000     1.39158    
V9       V      0.909900000000     0.179910000000     0.105500000000     1.42089    
V10      V      0.914390000000     0.268280000000     0.106820000000     1.3847     
V11      V      0.575260000000     0.518530000000     0.279440000000     1.38188    
V12      V      0.564950000000     0.598290000000     0.288850000000     1.40861    
V13      V      0.298960000000     0.444610000000     0.423000000000     1.39917    
V14      V      0.224180000000     0.353870000000     0.439320000000     1.40103    
V15      V      0.443370000000     0.240400000000     0.357090000000     1.38755    
V16      V      0.352510000000     0.162250000000     0.347060000000     1.41055    
V17      V      0.095680000000     0.562680000000     0.514450000000     1.39379    
V18      V      0.026210000000     0.500860000000     0.009670000000     1.39119    
V19      V      0.779960000000     0.903710000000     0.190470000000     1.42095    
V20      V      0.688010000000     0.825400000000     0.193310000000     1.38445    
V21      V      0.972580000000     0.778840000000     0.103160000000     1.41301    
V22      V      0.892310000000     0.687910000000     0.102740000000     1.39943    
V23      V      0.616770000000     0.074130000000     0.277600000000     1.40722    
V24      V      0.524770000000     0.995460000000     0.277410000000     1.41069    
V25      V      0.319640000000     0.205570000000     0.097230000000     1.37559    
V26      V      0.404520000000     0.204170000000     0.103960000000     1.40517    
V27      V      0.484890000000     0.558460000000     0.037860000000     1.41686    
V28      V      0.562230000000     0.543920000000     0.533130000000     1.36426    
V29      V      0.192040000000     0.873410000000     0.185720000000     1.3809     
V30      V      0.278860000000     0.875090000000     0.187940000000     1.42533    
V31      V      0.007820000000     0.527340000000     0.265650000000     1.37593    
V32      V      0.100980000000     0.544660000000     0.261540000000     1.42427    
V33      V      0.855370000000     0.200520000000     0.356580000000     1.41678    
V34      V      0.947440000000     0.214160000000     0.356190000000     1.40654    
V35      V      0.686860000000     0.868520000000     0.443370000000     1.42771    
V36      V      0.777310000000     0.878380000000     0.441170000000     1.3821     
V37      V      0.917910000000     0.677450000000     0.852920000000     1.407      
V38      V      0.907080000000     0.757760000000     0.852520000000     1.41473    
V39      V      0.254430000000     0.848600000000     0.937190000000     1.41633    
V40      V      0.237230000000     0.924840000000     0.936060000000     1.39212    
V41      V      0.573270000000     0.986780000000     0.027720000000     1.42423    
V42      V      0.578960000000     0.076410000000     0.527470000000     1.38121    
V43      V      0.237810000000     0.345630000000     0.687980000000     1.39619    
V44      V      0.267410000000     0.440630000000     0.672640000000     1.39416    
V45      V      0.910140000000     0.180630000000     0.606740000000     1.41993    
V46      V      0.915470000000     0.269370000000     0.606260000000     1.38133    
V47      V      0.575870000000     0.517700000000     0.779160000000     1.38194    
V48      V      0.565840000000     0.597580000000     0.788820000000     1.40885    
V49      V      0.308800000000     0.451170000000     0.923650000000     1.39989    
V50      V      0.231330000000     0.362080000000     0.940010000000     1.40524    
V51      V      0.445070000000     0.241800000000     0.856730000000     1.39135    
V52      V      0.354050000000     0.163680000000     0.847180000000     1.40719    
V53      V      0.116140000000     0.580580000000     0.019220000000     1.39854    
V54      V      0.008710000000     0.477740000000     0.517460000000     1.40182    
V55      V      0.779590000000     0.901980000000     0.690960000000     1.41761    
V56      V      0.686700000000     0.825210000000     0.693310000000     1.389      
V57      V      0.962900000000     0.765130000000     0.602860000000     1.42622    
V58      V      0.879530000000     0.676500000000     0.602100000000     1.38992    
V59      V      0.618970000000     0.075920000000     0.778150000000     1.40511    
V60      V      0.526950000000     0.997300000000     0.777650000000     1.41427    
V61      V      0.317970000000     0.206310000000     0.597660000000     1.378      
V62      V      0.402310000000     0.203820000000     0.604140000000     1.40007    
V63      V      0.485270000000     0.559340000000     0.538470000000     1.41301    
V64      V      0.562310000000     0.543730000000     0.032890000000     1.35887    
V65      V      0.182960000000     0.874240000000     0.685720000000     1.37103    
V66      V      0.267470000000     0.871350000000     0.687420000000     1.4309     
V67      V      0.988760000000     0.525450000000     0.762550000000     1.39709    
V68      V      0.083100000000     0.546920000000     0.768700000000     1.41186    
V69      V      0.843030000000     0.197800000000     0.856410000000     1.41028    
V70      V      0.936390000000     0.215040000000     0.855240000000     1.4149     
V71      V      0.683750000000     0.867330000000     0.943440000000     1.43073    
V72      V      0.774870000000     0.878860000000     0.940990000000     1.3813     


