data_structure

_audit_creation_method RASPA-1.0
_audit_creation_date 2023-5-23
_audit_author_name 'Poobodin Mano'

_cell_length_a    48.7733
_cell_length_b    48.8843
_cell_length_c    28.9858
_cell_angle_alpha 90.0143
_cell_angle_beta  89.9866
_cell_angle_gamma 120.408
_cell_volume      59602.9

_symmetry_cell_setting          triclinic
_symmetry_space_group_name_Hall 'P 1'
_symmetry_space_group_name_H-M  'P 1'
_symmetry_Int_Tables_number     1

_symmetry_equiv_pos_as_xyz 'x,y,z'

loop_
_atom_site_label
_atom_site_type_symbol
_atom_site_fract_x
_atom_site_fract_y
_atom_site_fract_z
_atom_site_charge
C1       C      0.486940000000     0.627150000000     0.125590000000     0.349362   
C2       C      0.398920000000     0.553330000000     0.021050000000     0.346493   
C3       C      0.481150000000     0.535900000000     0.069440000000     0.344385   
C4       C      0.402510000000     0.533270000000     0.173670000000     0.347519   
C5       C      0.546690000000     0.394500000000     0.957540000000     0.34827    
C6       C      0.640570000000     0.470220000000     0.057970000000     0.344721   
C7       C      0.630150000000     0.480100000000     0.906290000000     0.345064   
C8       C      0.556180000000     0.486060000000     0.018680000000     0.344583   
C9       C      0.879250000000     0.826360000000     0.131740000000     0.349427   
C10      C      0.968720000000     0.842250000000     0.233440000000     0.346839   
C11      C      0.886440000000     0.740930000000     0.189450000000     0.34414    
C12      C      0.961150000000     0.816430000000     0.080280000000     0.346223   
C13      C      0.732560000000     0.514380000000     0.193270000000     0.346536   
C14      C      0.820650000000     0.531170000000     0.299750000000     0.349191   
C15      C      0.813320000000     0.615290000000     0.241260000000     0.344267   
C16      C      0.734450000000     0.538090000000     0.345170000000     0.346939   
C17      C      0.206440000000     0.723100000000     0.290330000000     0.349748   
C18      C      0.297240000000     0.795940000000     0.392060000000     0.346218   
C19      C      0.290460000000     0.814890000000     0.241120000000     0.346436   
C20      C      0.215460000000     0.815620000000     0.351120000000     0.344512   
C21      C      0.060590000000     0.886250000000     0.368660000000     0.345453   
C22      C      0.152370000000     0.959650000000     0.470140000000     0.349325   
C23      C      0.068700000000     0.869350000000     0.518920000000     0.345977   
C24      C      0.143430000000     0.867620000000     0.407500000000     0.344507   
C25      C      0.539330000000     0.154320000000     0.457140000000     0.349542   
C26      C      0.628080000000     0.169830000000     0.559250000000     0.34627    
C27      C      0.545550000000     0.068510000000     0.514780000000     0.344194   
C28      C      0.622950000000     0.143360000000     0.408620000000     0.347466   
C29      C      0.480350000000     0.858170000000     0.626410000000     0.349232   
C30      C      0.389250000000     0.841760000000     0.527130000000     0.346218   
C31      C      0.398640000000     0.867060000000     0.679280000000     0.345964   
C32      C      0.472500000000     0.943210000000     0.568240000000     0.34437    
C33      C      0.962070000000     0.130280000000     0.726980000000     0.346253   
C34      C      0.873700000000     0.056150000000     0.623700000000     0.349513   
C35      C      0.880070000000     0.148340000000     0.679880000000     0.344223   
C36      C      0.957920000000     0.150280000000     0.575220000000     0.347656   
C37      C      0.721600000000     0.215400000000     0.692210000000     0.345648   
C38      C      0.814120000000     0.292390000000     0.789570000000     0.348981   
C39      C      0.733590000000     0.203380000000     0.843870000000     0.345609   
C40      C      0.806470000000     0.199660000000     0.731340000000     0.344869   
C41      C      0.305160000000     0.504180000000     0.888080000000     0.344574   
C42      C      0.212290000000     0.489930000000     0.791100000000     0.347655   
C43      C      0.293510000000     0.483770000000     0.737080000000     0.345362   
C44      C      0.218010000000     0.404440000000     0.848670000000     0.345012   
C45      C      0.055160000000     0.178860000000     0.860800000000     0.344709   
C46      C      0.147060000000     0.192890000000     0.957210000000     0.348746   
C47      C      0.141480000000     0.279310000000     0.900960000000     0.345209   
C48      C      0.066780000000     0.201230000000     0.012470000000     0.345687   
C49      C      0.964530000000     0.820550000000     0.630860000000     0.349386   
C50      C      0.889160000000     0.832120000000     0.733280000000     0.346432   
C51      C      0.869470000000     0.808490000000     0.580160000000     0.347777   
C52      C      0.872840000000     0.733080000000     0.683800000000     0.344598   
C53      C      0.732110000000     0.522830000000     0.790910000000     0.347761   
C54      C      0.810690000000     0.508470000000     0.693770000000     0.345062   
C55      C      0.824070000000     0.607700000000     0.733290000000     0.344825   
C56      C      0.818510000000     0.528880000000     0.846390000000     0.344823   
C57      C      0.182870000000     0.138330000000     0.224180000000     0.3448     
C58      C      0.195830000000     0.059510000000     0.127980000000     0.347806   
C59      C      0.203620000000     0.147680000000     0.072000000000     0.345209   
C60      C      0.282260000000     0.151730000000     0.183490000000     0.345194   
C61      C      0.494690000000     0.293690000000     0.292900000000     0.34903    
C62      C      0.509050000000     0.217770000000     0.195040000000     0.345494   
C63      C      0.483460000000     0.201860000000     0.345340000000     0.346479   
C64      C      0.407570000000     0.200910000000     0.235410000000     0.344898   
C65      C      0.855410000000     0.460950000000     0.559650000000     0.346556   
C66      C      0.871410000000     0.389950000000     0.452580000000     0.349107   
C67      C      0.878760000000     0.483870000000     0.408250000000     0.347482   
C68      C      0.955930000000     0.481390000000     0.511070000000     0.344446   
C69      C      0.164260000000     0.627530000000     0.627890000000     0.349247   
C70      C      0.183590000000     0.555490000000     0.526060000000     0.346093   
C71      C      0.157180000000     0.537360000000     0.677430000000     0.345711   
C72      C      0.081270000000     0.534580000000     0.565410000000     0.344056   
C73      C      0.062790000000     0.197670000000     0.464750000000     0.349259   
C74      C      0.135020000000     0.182200000000     0.359100000000     0.346976   
C75      C      0.154460000000     0.282030000000     0.407100000000     0.344321   
C76      C      0.155710000000     0.205550000000     0.512620000000     0.346831   
C77      C      0.299070000000     0.488480000000     0.286860000000     0.349206   
C78      C      0.228850000000     0.509360000000     0.391150000000     0.346373   
C79      C      0.208880000000     0.482830000000     0.240600000000     0.345889   
C80      C      0.206980000000     0.406830000000     0.352020000000     0.344055   
C81      C      0.393750000000     0.862470000000     0.127300000000     0.349336   
C82      C      0.466590000000     0.847450000000     0.022470000000     0.346576   
C83      C      0.485820000000     0.947890000000     0.069340000000     0.344027   
C84      C      0.487770000000     0.872340000000     0.174520000000     0.347242   
C85      C      0.557920000000     0.174290000000     0.061300000000     0.34672    
C86      C      0.631760000000     0.158580000000     0.959590000000     0.349614   
C87      C      0.538440000000     0.073340000000     0.017430000000     0.344035   
C88      C      0.540080000000     0.149330000000     0.908490000000     0.346433   
C89      C      0.827910000000     0.956680000000     0.961520000000     0.347655   
C90      C      0.840240000000     0.876740000000     0.865670000000     0.344246   
C91      C      0.820680000000     0.869430000000     0.017000000000     0.345358   
C92      C      0.741420000000     0.865350000000     0.904950000000     0.345319   
C93      C      0.530670000000     0.725570000000     0.793850000000     0.348442   
C94      C      0.516100000000     0.803470000000     0.890250000000     0.344824   
C95      C      0.616470000000     0.817510000000     0.852060000000     0.34507    
C96      C      0.538520000000     0.813940000000     0.739680000000     0.345524   
C97      C      0.174990000000     0.626720000000     0.026330000000     0.345785   
C98      C      0.160590000000     0.537510000000     0.127550000000     0.349427   
C99      C      0.149640000000     0.619520000000     0.177830000000     0.347269   
C100     C      0.073940000000     0.542930000000     0.070940000000     0.344192   
C101     C      0.848450000000     0.379460000000     0.059470000000     0.345178   
C102     C      0.862090000000     0.472010000000     0.963290000000     0.34783    
C103     C      0.948250000000     0.466700000000     0.020060000000     0.344903   
C104     C      0.870520000000     0.393000000000     0.907170000000     0.345039   
C105     C      0.201550000000     0.148970000000     0.626940000000     0.349014   
C106     C      0.184190000000     0.060480000000     0.734110000000     0.346442   
C107     C      0.208950000000     0.063710000000     0.582100000000     0.347111   
C108     C      0.285230000000     0.141660000000     0.686960000000     0.344236   
C109     C      0.511600000000     0.295750000000     0.689390000000     0.346637   
C110     C      0.495350000000     0.206980000000     0.794820000000     0.349297   
C111     C      0.488600000000     0.291670000000     0.843420000000     0.346794   
C112     C      0.411320000000     0.214860000000     0.737740000000     0.344342   
C113     C      0.296170000000     0.811770000000     0.794510000000     0.348849   
C114     C      0.219580000000     0.719960000000     0.893070000000     0.345013   
C115     C      0.203610000000     0.804740000000     0.852530000000     0.344835   
C116     C      0.206690000000     0.729930000000     0.742010000000     0.345908   
C117     C      0.063590000000     0.872670000000     0.964990000000     0.347908   
C118     C      0.140720000000     0.966520000000     0.866200000000     0.344338   
C119     C      0.150830000000     0.955800000000     0.016200000000     0.345328   
C120     C      0.155050000000     0.880680000000     0.904470000000     0.344885   
C121     C      0.629250000000     0.480960000000     0.455620000000     0.348133   
C122     C      0.553010000000     0.388240000000     0.555280000000     0.344348   
C123     C      0.537530000000     0.473210000000     0.515590000000     0.344868   
C124     C      0.541000000000     0.397380000000     0.405210000000     0.345911   
C125     C      0.396570000000     0.542380000000     0.623540000000     0.348674   
C126     C      0.474380000000     0.634480000000     0.526560000000     0.345067   
C127     C      0.485540000000     0.623560000000     0.678620000000     0.345366   
C128     C      0.489000000000     0.549200000000     0.567220000000     0.344967   
C129     C      0.890160000000     0.049080000000     0.227050000000     0.345765   
C130     C      0.964640000000     0.141860000000     0.127620000000     0.349068   
C131     C      0.875250000000     0.059300000000     0.075780000000     0.345434   
C132     C      0.871560000000     0.131990000000     0.188470000000     0.344387   
C133     C      0.727910000000     0.198510000000     0.297840000000     0.34916    
C134     C      0.800710000000     0.286080000000     0.192610000000     0.346513   
C135     C      0.823140000000     0.284350000000     0.343580000000     0.347568   
C136     C      0.819660000000     0.204890000000     0.240740000000     0.344208   
C137     C      0.845640000000     0.956700000000     0.361140000000     0.346567   
C138     C      0.824730000000     0.866430000000     0.466890000000     0.349297   
C139     C      0.818970000000     0.952000000000     0.511820000000     0.346443   
C140     C      0.743100000000     0.876760000000     0.402760000000     0.344185   
C141     C      0.517340000000     0.726660000000     0.391920000000     0.346706   
C142     C      0.534500000000     0.815420000000     0.286090000000     0.349264   
C143     C      0.618040000000     0.807130000000     0.345800000000     0.344142   
C144     C      0.541670000000     0.730540000000     0.239000000000     0.34661    
C145     C      0.672150000000     0.821150000000     0.337990000000     0.0350447  
C146     C      0.657510000000     0.845580000000     0.395440000000     0.035049   
C147     C      0.689110000000     0.863210000000     0.409850000000     0.0350525  
C148     C      0.703770000000     0.838810000000     0.352380000000     0.0349817  
C149     C      0.892040000000     0.033710000000     0.304440000000     0.0351095  
C150     C      0.863480000000     0.994650000000     0.248040000000     0.0352138  
C151     C      0.852430000000     0.971130000000     0.281920000000     0.0347905  
C152     C      0.880770000000     0.010170000000     0.338450000000     0.034637   
C153     C      0.821190000000     0.167470000000     0.190070000000     0.0350584  
C154     C      0.856400000000     0.187190000000     0.253360000000     0.0351274  
C155     C      0.869330000000     0.168540000000     0.240330000000     0.0349818  
C156     C      0.834220000000     0.148960000000     0.176920000000     0.0349771  
C157     C      0.469700000000     0.650550000000     0.450710000000     0.0350095  
C158     C      0.504470000000     0.688600000000     0.504420000000     0.0346574  
C159     C      0.515030000000     0.712060000000     0.470560000000     0.0348487  
C160     C      0.480530000000     0.674040000000     0.416600000000     0.0350772  
C161     C      0.533450000000     0.507370000000     0.570070000000     0.034901   
C162     C      0.505000000000     0.495470000000     0.500040000000     0.0351493  
C163     C      0.493000000000     0.514940000000     0.512880000000     0.0349976  
C164     C      0.521410000000     0.526810000000     0.582950000000     0.0351505  
C165     C      0.170290000000     0.826250000000     0.837600000000     0.035022   
C166     C      0.200340000000     0.839720000000     0.906280000000     0.0348855  
C167     C      0.188320000000     0.859160000000     0.919200000000     0.0351069  
C168     C      0.158270000000     0.845710000000     0.850530000000     0.0349387  
C169     C      0.548390000000     0.348320000000     0.664360000000     0.0350941  
C170     C      0.512690000000     0.310580000000     0.611120000000     0.0347897  
C171     C      0.522840000000     0.334130000000     0.577440000000     0.0345982  
C172     C      0.558820000000     0.371890000000     0.630410000000     0.0349172  
C173     C      0.146170000000     0.008070000000     0.758370000000     0.0344561  
C174     C      0.182850000000     0.044630000000     0.811890000000     0.03484    
C175     C      0.172170000000     0.020700000000     0.845020000000     0.0341662  
C176     C      0.135230000000     0.984110000000     0.791790000000     0.0354534  
C177     C      0.339420000000     0.156430000000     0.677540000000     0.0350528  
C178     C      0.325220000000     0.181540000000     0.734500000000     0.0350217  
C179     C      0.357110000000     0.200130000000     0.747280000000     0.0351173  
C180     C      0.371290000000     0.175020000000     0.690310000000     0.0350708  
C181     C      0.826190000000     0.361670000000     0.134350000000     0.0350198  
C182     C      0.827150000000     0.325630000000     0.081160000000     0.0345269  
C183     C      0.814720000000     0.301860000000     0.114640000000     0.0349932  
C184     C      0.813910000000     0.337860000000     0.168040000000     0.0350553  
C185     C      0.209270000000     0.680540000000     0.004340000000     0.0349117  
C186     C      0.181420000000     0.641740000000     0.947320000000     0.0347705  
C187     C      0.192490000000     0.665440000000     0.913700000000     0.0347955  
C188     C      0.220650000000     0.704250000000     0.970570000000     0.0349729  
C189     C      0.035020000000     0.507180000000     0.018120000000     0.0352957  
C190     C      0.018880000000     0.522000000000     0.085810000000     0.0342496  
C191     C      0.987080000000     0.502470000000     0.073150000000     0.0359114  
C192     C      0.003260000000     0.487790000000     0.005370000000     0.0336179  
C193     C      0.540740000000     0.691240000000     0.748230000000     0.0354614  
C194     C      0.488390000000     0.674570000000     0.772410000000     0.0357743  
C195     C      0.476850000000     0.648580000000     0.742660000000     0.0350414  
C196     C      0.529230000000     0.665110000000     0.718800000000     0.0354854  
C197     C      0.882760000000     0.033930000000     0.011080000000     0.0351693  
C198     C      0.830850000000     0.017680000000     0.036900000000     0.0351733  
C199     C      0.818760000000     0.991400000000     0.007680000000     0.0357954  
C200     C      0.870640000000     0.007760000000     0.981580000000     0.035545   
C201     C      0.686080000000     0.833880000000     0.920660000000     0.035149   
C202     C      0.703390000000     0.861140000000     0.849800000000     0.0350438  
C203     C      0.671810000000     0.849280000000     0.836590000000     0.035115   
C204     C      0.654500000000     0.822010000000     0.907440000000     0.0350144  
C205     C      0.496030000000     0.149350000000     0.873660000000     0.0355396  
C206     C      0.547220000000     0.180300000000     0.841510000000     0.0352669  
C207     C      0.535800000000     0.195050000000     0.812310000000     0.0358315  
C208     C      0.484670000000     0.164190000000     0.844670000000     0.035539   
C209     C      0.532400000000     0.871650000000     0.205850000000     0.0354392  
C210     C      0.482430000000     0.842710000000     0.242310000000     0.0353929  
C211     C      0.494340000000     0.828140000000     0.270900000000     0.0358628  
C212     C      0.544260000000     0.857010000000     0.234310000000     0.0355748  
C213     C      0.480570000000     0.845630000000     0.944540000000     0.0348892  
C214     C      0.480930000000     0.809700000000     0.998520000000     0.0350153  
C215     C      0.493660000000     0.798600000000     0.965050000000     0.0349994  
C216     C      0.493510000000     0.834770000000     0.911320000000     0.0345619  
C217     C      0.524100000000     0.002430000000     0.080260000000     0.0343639  
C218     C      0.486670000000     0.987120000000     0.019940000000     0.0356362  
C219     C      0.499870000000     0.018840000000     0.006870000000     0.0344978  
C220     C      0.537270000000     0.034140000000     0.067260000000     0.0350243  
C221     C      0.163970000000     0.480490000000     0.204680000000     0.0355653  
C222     C      0.215330000000     0.514840000000     0.175180000000     0.0353284  
C223     C      0.202990000000     0.528730000000     0.146050000000     0.0358564  
C224     C      0.151670000000     0.494520000000     0.175790000000     0.0355222  
C225     C      0.149640000000     0.175720000000     0.580510000000     0.035296   
C226     C      0.200010000000     0.204800000000     0.545210000000     0.0354071  
C227     C      0.211640000000     0.190290000000     0.574400000000     0.0355858  
C228     C      0.161330000000     0.161310000000     0.609870000000     0.0358736  
C229     C      0.193370000000     0.336600000000     0.416130000000     0.0350932  
C230     C      0.154300000000     0.320900000000     0.358100000000     0.0351162  
C231     C      0.167470000000     0.352440000000     0.344250000000     0.0349401  
C232     C      0.206500000000     0.368170000000     0.402340000000     0.0349635  
C233     C      0.152630000000     0.659860000000     0.675620000000     0.0354826  
C234     C      0.204760000000     0.679800000000     0.647590000000     0.0358403  
C235     C      0.215600000000     0.705940000000     0.676880000000     0.0350106  
C236     C      0.163400000000     0.686140000000     0.704590000000     0.0355254  
C237     C      0.214430000000     0.532370000000     0.504410000000     0.0347685  
C238     C      0.196030000000     0.553520000000     0.447190000000     0.0349227  
C239     C      0.207450000000     0.541680000000     0.412980000000     0.0349446  
C240     C      0.226080000000     0.520770000000     0.470220000000     0.0349157  
C241     C      0.880330000000     0.357780000000     0.400500000000     0.0355375  
C242     C      0.831080000000     0.336470000000     0.438990000000     0.0358918  
C243     C      0.818780000000     0.309490000000     0.411090000000     0.0354436  
C244     C      0.868100000000     0.330770000000     0.372780000000     0.0355616  
C245     C      0.010670000000     0.519610000000     0.500540000000     0.0344971  
C246     C      0.995010000000     0.482390000000     0.561100000000     0.0360264  
C247     C      0.026680000000     0.495760000000     0.574800000000     0.0340261  
C248     C      0.042380000000     0.532910000000     0.514140000000     0.0350043  
C249     C      0.485280000000     0.329010000000     0.337150000000     0.0355399  
C250     C      0.537530000000     0.344400000000     0.314020000000     0.0358121  
C251     C      0.549360000000     0.370800000000     0.342990000000     0.0351149  
C252     C      0.497080000000     0.355580000000     0.365750000000     0.035518   
C253     C      0.525790000000     0.219100000000     0.117460000000     0.0350321  
C254     C      0.537130000000     0.191640000000     0.174210000000     0.0347994  
C255     C      0.549840000000     0.180860000000     0.140440000000     0.034938   
C256     C      0.538240000000     0.208050000000     0.083570000000     0.0350077  
C257     C      0.141830000000     0.982160000000     0.078060000000     0.0354684  
C258     C      0.194330000000     0.997500000000     0.056480000000     0.0361405  
C259     C      0.205820000000     0.024120000000     0.084930000000     0.0347109  
C260     C      0.153330000000     0.008580000000     0.106930000000     0.035207   
C261     C      0.160500000000     0.132870000000     0.299170000000     0.0349849  
C262     C      0.161730000000     0.170560000000     0.247100000000     0.0345846  
C263     C      0.149220000000     0.181400000000     0.281000000000     0.0348675  
C264     C      0.148180000000     0.143930000000     0.333330000000     0.0349991  
C265     C      0.337480000000     0.183530000000     0.167260000000     0.0351428  
C266     C      0.320670000000     0.156690000000     0.238510000000     0.0349292  
C267     C      0.352350000000     0.168890000000     0.251470000000     0.0351995  
C268     C      0.369160000000     0.195750000000     0.180250000000     0.0350058  
C269     C      0.872510000000     0.517270000000     0.919360000000     0.0354808  
C270     C      0.819730000000     0.479500000000     0.939540000000     0.0358111  
C271     C      0.808590000000     0.493910000000     0.909270000000     0.0349036  
C272     C      0.861380000000     0.531890000000     0.889480000000     0.0353859  
C273     C      0.843790000000     0.488250000000     0.671110000000     0.0345666  
C274     C      0.804950000000     0.485160000000     0.619450000000     0.0349669  
C275     C      0.816210000000     0.472880000000     0.585510000000     0.0349922  
C276     C      0.854860000000     0.475830000000     0.637430000000     0.0349072  
C277     C      0.875160000000     0.837370000000     0.511430000000     0.0354753  
C278     C      0.825440000000     0.810380000000     0.548980000000     0.0355405  
C279     C      0.814090000000     0.825290000000     0.520100000000     0.0354991  
C280     C      0.863790000000     0.852250000000     0.482480000000     0.0357812  
C281     C      0.872250000000     0.831750000000     0.810170000000     0.0349069  
C282     C      0.877110000000     0.871280000000     0.758580000000     0.0350907  
C283     C      0.864530000000     0.882540000000     0.792070000000     0.0350468  
C284     C      0.859500000000     0.842810000000     0.843380000000     0.0346217  
C285     C      0.838030000000     0.678100000000     0.669210000000     0.0352633  
C286     C      0.871470000000     0.694270000000     0.734550000000     0.035207   
C287     C      0.859260000000     0.662600000000     0.746980000000     0.0351084  
C288     C      0.825940000000     0.646370000000     0.681500000000     0.034982   
C289     C      0.024200000000     0.201690000000     0.051500000000     0.0345988  
C290     C      0.042440000000     0.167910000000     0.077350000000     0.0351336  
C291     C      0.016380000000     0.152790000000     0.106990000000     0.0352278  
C292     C      0.997980000000     0.186370000000     0.080810000000     0.036355   
C293     C      0.206600000000     0.191140000000     0.030900000000     0.0354117  
C294     C      0.169010000000     0.138800000000     0.008880000000     0.0349261  
C295     C      0.154660000000     0.150370000000     0.979200000000     0.0359362  
C296     C      0.192060000000     0.202680000000     0.001580000000     0.0355643  
C297     C      0.319510000000     0.518760000000     0.674410000000     0.0350654  
C298     C      0.334780000000     0.481890000000     0.696330000000     0.035482   
C299     C      0.361230000000     0.496990000000     0.667390000000     0.035433   
C300     C      0.345760000000     0.533650000000     0.645070000000     0.0357152  
C301     C      0.168930000000     0.480670000000     0.743190000000     0.0353602  
C302     C      0.203200000000     0.532030000000     0.772400000000     0.035761   
C303     C      0.189190000000     0.544160000000     0.743110000000     0.0352222  
C304     C      0.154790000000     0.492760000000     0.714130000000     0.0355012  
C305     C      0.194910000000     0.349370000000     0.832980000000     0.0351282  
C306     C      0.184050000000     0.366030000000     0.903600000000     0.0348961  
C307     C      0.164500000000     0.334390000000     0.916680000000     0.0351666  
C308     C      0.175360000000     0.317750000000     0.846050000000     0.0350137  
C309     C      0.691530000000     0.159680000000     0.883190000000     0.035528   
C310     C      0.709330000000     0.211760000000     0.909220000000     0.0351576  
C311     C      0.683340000000     0.200290000000     0.939080000000     0.0358739  
C312     C      0.665400000000     0.148260000000     0.912690000000     0.0356404  
C313     C      0.822550000000     0.342770000000     0.812240000000     0.0359407  
C314     C      0.858870000000     0.326960000000     0.835210000000     0.0357328  
C315     C      0.873390000000     0.352770000000     0.865270000000     0.0353075  
C316     C      0.836840000000     0.368390000000     0.842680000000     0.0350239  
C317     C      0.009550000000     0.157080000000     0.479660000000     0.0349595  
C318     C      0.030220000000     0.207070000000     0.515420000000     0.0355998  
C319     C      0.003390000000     0.195040000000     0.543580000000     0.0349642  
C320     C      0.982740000000     0.145000000000     0.507990000000     0.036427   
C321     C      0.863690000000     0.004270000000     0.607150000000     0.0354349  
C322     C      0.831410000000     0.022140000000     0.573880000000     0.0352471  
C323     C      0.817370000000     0.995520000000     0.545280000000     0.0359348  
C324     C      0.849790000000     0.977720000000     0.578340000000     0.0359523  
C325     C      0.014920000000     0.146550000000     0.750690000000     0.0344712  
C326     C      0.977130000000     0.141960000000     0.805650000000     0.0360117  
C327     C      0.000820000000     0.154600000000     0.839350000000     0.0330287  
C328     C      0.038610000000     0.158950000000     0.784590000000     0.0349906  
C329     C      0.843530000000     0.150770000000     0.731500000000     0.0350396  
C330     C      0.861400000000     0.184130000000     0.666150000000     0.0351857  
C331     C      0.842570000000     0.196920000000     0.678990000000     0.0349959  
C332     C      0.824850000000     0.163650000000     0.744450000000     0.0350328  
C333     C      0.373740000000     0.835270000000     0.745350000000     0.0351876  
C334     C      0.356450000000     0.869190000000     0.716720000000     0.0357071  
C335     C      0.330240000000     0.855020000000     0.746210000000     0.0354873  
C336     C      0.347600000000     0.821200000000     0.775060000000     0.0358384  
C337     C      0.489550000000     0.816430000000     0.646830000000     0.0358164  
C338     C      0.525300000000     0.868690000000     0.671480000000     0.0355272  
C339     C      0.540330000000     0.857410000000     0.700280000000     0.0354902  
C340     C      0.504370000000     0.805110000000     0.676010000000     0.0350597  
C341     C      0.667740000000     0.142900000000     0.377490000000     0.0356053  
C342     C      0.648320000000     0.172850000000     0.340960000000     0.0355038  
C343     C      0.675140000000     0.186950000000     0.312540000000     0.0357176  
C344     C      0.694590000000     0.157080000000     0.349250000000     0.0354889  
C345     C      0.481500000000     0.157180000000     0.380950000000     0.03576    
C346     C      0.515440000000     0.208390000000     0.410910000000     0.0353722  
C347     C      0.529720000000     0.196240000000     0.439620000000     0.0356912  
C348     C      0.495930000000     0.145070000000     0.409380000000     0.035516   
C349     C      0.643210000000     0.175190000000     0.638090000000     0.034876   
C350     C      0.681470000000     0.205950000000     0.581770000000     0.03503    
C351     C      0.705280000000     0.217520000000     0.615470000000     0.0350311  
C352     C      0.667000000000     0.186540000000     0.671630000000     0.0347972  
C353     C      0.490860000000     0.997880000000     0.580730000000     0.0355841  
C354     C      0.508260000000     0.982110000000     0.515340000000     0.0355154  
C355     C      0.526890000000     0.013800000000     0.501940000000     0.0345543  
C356     C      0.509420000000     0.029550000000     0.567280000000     0.0344606  
C357     C      0.026220000000     0.824500000000     0.555660000000     0.0347975  
C358     C      0.042570000000     0.875860000000     0.583580000000     0.0354509  
C359     C      0.016020000000     0.863370000000     0.612490000000     0.0351976  
C360     C      0.999540000000     0.812060000000     0.584230000000     0.0365542  
C361     C      0.194220000000     0.992230000000     0.521610000000     0.0359906  
C362     C      0.164540000000     0.012310000000     0.485920000000     0.035586   
C363     C      0.178980000000     0.038870000000     0.514640000000     0.0354302  
C364     C      0.208740000000     0.018840000000     0.550210000000     0.0349993  
C365     C      0.315150000000     0.808720000000     0.174400000000     0.0354064  
C366     C      0.334320000000     0.859620000000     0.206330000000     0.0356646  
C367     C      0.360740000000     0.871720000000     0.177290000000     0.0355859  
C368     C      0.341490000000     0.820880000000     0.145090000000     0.0358738  
C369     C      0.194700000000     0.670650000000     0.273840000000     0.0358212  
C370     C      0.163810000000     0.690090000000     0.240300000000     0.0355606  
C371     C      0.149190000000     0.663560000000     0.211570000000     0.0356105  
C372     C      0.180160000000     0.644170000000     0.244980000000     0.035474   
C373     C      0.374680000000     0.829000000000     0.448330000000     0.0350134  
C374     C      0.334850000000     0.811610000000     0.505470000000     0.0349146  
C375     C      0.311450000000     0.799790000000     0.471260000000     0.0349511  
C376     C      0.351290000000     0.817450000000     0.414090000000     0.0349256  
C377     C      0.179870000000     0.818180000000     0.404560000000     0.0348949  
C378     C      0.197370000000     0.852080000000     0.339780000000     0.0351799  
C379     C      0.178980000000     0.865070000000     0.353900000000     0.0348607  
C380     C      0.161510000000     0.831180000000     0.418700000000     0.0351012  
C381     C      0.689170000000     0.537570000000     0.376490000000     0.0355073  
C382     C      0.708900000000     0.507530000000     0.411920000000     0.0353852  
C383     C      0.682070000000     0.492970000000     0.440260000000     0.0358805  
C384     C      0.662310000000     0.522930000000     0.404700000000     0.0353506  
C385     C      0.862240000000     0.540450000000     0.351460000000     0.0355389  
C386     C      0.833590000000     0.491080000000     0.313600000000     0.0358004  
C387     C      0.848450000000     0.479040000000     0.341360000000     0.0354854  
C388     C      0.877200000000     0.528460000000     0.379060000000     0.0354939  
C389     C      0.985060000000     0.846750000000     0.012660000000     0.0360969  
C390     C      0.004820000000     0.815840000000     0.045030000000     0.0349499  
C391     C      0.031010000000     0.830270000000     0.015550000000     0.0353554  
C392     C      0.011220000000     0.861100000000     0.983010000000     0.0350393  
C393     C      0.870550000000     0.868130000000     0.109500000000     0.0358716  
C394     C      0.833970000000     0.815530000000     0.087240000000     0.0356075  
C395     C      0.818840000000     0.826510000000     0.058090000000     0.0353715  
C396     C      0.855680000000     0.879150000000     0.079870000000     0.0349321  
C397     C      0.982820000000     0.850140000000     0.312840000000     0.0361832  
C398     C      0.022610000000     0.875550000000     0.256170000000     0.0344551  
C399     C      0.045980000000     0.886800000000     0.290460000000     0.0349777  
C400     C      0.006180000000     0.861120000000     0.347040000000     0.0331046  
C401     C      0.848260000000     0.701420000000     0.239400000000     0.0350564  
C402     C      0.870320000000     0.686620000000     0.178650000000     0.0350182  
C403     C      0.851760000000     0.654860000000     0.191710000000     0.0350453  
C404     C      0.829630000000     0.669650000000     0.252380000000     0.0350993  
C405     C      0.671680000000     0.522860000000     0.864660000000     0.0355751  
C406     C      0.655270000000     0.470140000000     0.843610000000     0.0349457  
C407     C      0.681180000000     0.481070000000     0.813720000000     0.0358585  
C408     C      0.697820000000     0.533770000000     0.835230000000     0.0353586  
C409     C      0.504270000000     0.362590000000     0.906480000000     0.0354346  
C410     C      0.533930000000     0.341820000000     0.940200000000     0.0358501  
C411     C      0.519140000000     0.315600000000     0.910850000000     0.0353173  
C412     C      0.489370000000     0.336310000000     0.877300000000     0.0353677  
C413     C      0.694650000000     0.501090000000     0.080510000000     0.0345203  
C414     C      0.656800000000     0.465480000000     0.133740000000     0.0349252  
C415     C      0.680240000000     0.476670000000     0.168040000000     0.0350033  
C416     C      0.718060000000     0.512040000000     0.114570000000     0.0348752  
C417     C      0.356290000000     0.489260000000     0.205290000000     0.0355519  
C418     C      0.379050000000     0.539150000000     0.241950000000     0.0354194  
C419     C      0.352620000000     0.527760000000     0.270900000000     0.0359164  
C420     C      0.329830000000     0.477900000000     0.234150000000     0.0354885  
C421     C      0.497280000000     0.679090000000     0.142730000000     0.0358505  
C422     C      0.528970000000     0.660560000000     0.176190000000     0.0355818  
C423     C      0.542970000000     0.686950000000     0.205220000000     0.035499   
C424     C      0.511180000000     0.705420000000     0.171960000000     0.0354593  
C425     C      0.346800000000     0.539420000000     0.996450000000     0.0350911  
C426     C      0.383020000000     0.538660000000     0.943260000000     0.034897   
C427     C      0.359160000000     0.525830000000     0.909860000000     0.0344614  
C428     C      0.322910000000     0.526790000000     0.962800000000     0.0349486  
C429     C      0.519480000000     0.535270000000     0.019570000000     0.0352003  
C430     C      0.499360000000     0.499650000000     0.082270000000     0.0351533  
C431     C      0.518580000000     0.487270000000     0.069670000000     0.0349368  
C432     C      0.538550000000     0.522790000000     0.006830000000     0.0349486  
Cd1      Cd     0.443140000000     0.563310000000     0.095350000000     0.513212   
Cd2      Cd     0.592340000000     0.457300000000     0.988840000000     0.513243   
Cd3      Cd     0.922990000000     0.806530000000     0.161300000000     0.512724   
Cd4      Cd     0.776150000000     0.549510000000     0.268000000000     0.512933   
Cd5      Cd     0.251170000000     0.786460000000     0.321070000000     0.513132   
Cd6      Cd     0.107690000000     0.896590000000     0.438400000000     0.51317    
Cd7      Cd     0.582740000000     0.134050000000     0.486850000000     0.51302    
Cd8      Cd     0.436330000000     0.877800000000     0.597520000000     0.512791   
Cd9      Cd     0.917340000000     0.120160000000     0.653470000000     0.513179   
Cd10     Cd     0.770170000000     0.228390000000     0.760670000000     0.51302    
Cd11     Cd     0.255940000000     0.469800000000     0.819690000000     0.512972   
Cd12     Cd     0.103870000000     0.213840000000     0.929610000000     0.512798   
Cd13     Cd     0.899870000000     0.798830000000     0.658670000000     0.513061   
Cd14     Cd     0.796010000000     0.542450000000     0.762410000000     0.513048   
Cd15     Cd     0.216730000000     0.123870000000     0.155000000000     0.512921   
Cd16     Cd     0.473110000000     0.229400000000     0.264300000000     0.512934   
Cd17     Cd     0.890140000000     0.452970000000     0.484350000000     0.513205   
Cd18     Cd     0.146480000000     0.564720000000     0.596360000000     0.512667   
Cd19     Cd     0.126170000000     0.216500000000     0.434160000000     0.513197   
Cd20     Cd     0.236890000000     0.471720000000     0.320500000000     0.51303    
Cd21     Cd     0.457370000000     0.882280000000     0.096340000000     0.513033   
Cd22     Cd     0.567960000000     0.138880000000     0.989240000000     0.51286    
Cd23     Cd     0.806780000000     0.892410000000     0.933890000000     0.513149   
Cd24     Cd     0.551160000000     0.789580000000     0.822360000000     0.513009   
Cd25     Cd     0.139740000000     0.580500000000     0.098190000000     0.512831   
Cd26     Cd     0.882770000000     0.428770000000     0.991260000000     0.512964   
Cd27     Cd     0.219480000000     0.104500000000     0.659910000000     0.513076   
Cd28     Cd     0.477240000000     0.251770000000     0.764090000000     0.512921   
Cd29     Cd     0.232020000000     0.767940000000     0.823850000000     0.512626   
Cd30     Cd     0.127010000000     0.917570000000     0.934260000000     0.512938   
Cd31     Cd     0.565710000000     0.436350000000     0.486280000000     0.513034   
Cd32     Cd     0.460990000000     0.586330000000     0.595790000000     0.512839   
Cd33     Cd     0.901200000000     0.096740000000     0.158040000000     0.512779   
Cd34     Cd     0.791730000000     0.242410000000     0.266990000000     0.513118   
Cd35     Cd     0.808320000000     0.911830000000     0.433260000000     0.513189   
Cd36     Cd     0.552430000000     0.770720000000     0.317740000000     0.513157   
H1       H      0.666520000000     0.804800000000     0.309460000000     0.0507848  
H2       H      0.640010000000     0.849030000000     0.413490000000     0.0511493  
H3       H      0.694720000000     0.879540000000     0.438420000000     0.0508741  
H4       H      0.721270000000     0.835350000000     0.334360000000     0.0510338  
H5       H      0.907470000000     0.058150000000     0.314900000000     0.0501989  
H6       H      0.855860000000     0.987370000000     0.212770000000     0.0501387  
H7       H      0.836640000000     0.946760000000     0.271440000000     0.0504408  
H8       H      0.887950000000     0.017420000000     0.373850000000     0.0500611  
H9       H      0.802170000000     0.166250000000     0.169150000000     0.0511231  
H10      H      0.865890000000     0.201950000000     0.283810000000     0.05071    
H11      H      0.888370000000     0.169750000000     0.261180000000     0.0508016  
H12      H      0.824750000000     0.134270000000     0.146400000000     0.0509493  
H13      H      0.451880000000     0.626520000000     0.441340000000     0.0502963  
H14      H      0.514740000000     0.695490000000     0.538620000000     0.0503294  
H15      H      0.533120000000     0.735990000000     0.479980000000     0.0504568  
H16      H      0.470660000000     0.667180000000     0.382190000000     0.0499579  
H17      H      0.549430000000     0.505130000000     0.593730000000     0.05068    
H18      H      0.497910000000     0.483590000000     0.466900000000     0.0510983  
H19      H      0.477030000000     0.517180000000     0.489200000000     0.0508048  
H20      H      0.528490000000     0.538690000000     0.616080000000     0.0509449  
H21      H      0.162550000000     0.813720000000     0.805010000000     0.0508273  
H22      H      0.216970000000     0.838130000000     0.929380000000     0.0509252  
H23      H      0.196080000000     0.871670000000     0.951810000000     0.0511382  
H24      H      0.141640000000     0.847310000000     0.827460000000     0.0505932  
H25      H      0.558900000000     0.355030000000     0.698440000000     0.0497795  
H26      H      0.494270000000     0.286740000000     0.601930000000     0.0503975  
H27      H      0.511940000000     0.327360000000     0.543610000000     0.0503882  
H28      H      0.576970000000     0.395850000000     0.639550000000     0.0503683  
H29      H      0.135470000000     0.001970000000     0.724360000000     0.0498829  
H30      H      0.201860000000     0.068130000000     0.821390000000     0.0504033  
H31      H      0.183270000000     0.026860000000     0.878780000000     0.0504189  
H32      H      0.116480000000     0.960480000000     0.782350000000     0.0500599  
H33      H      0.333530000000     0.139480000000     0.649770000000     0.0508123  
H34      H      0.307810000000     0.184930000000     0.752910000000     0.0510852  
H35      H      0.363020000000     0.217080000000     0.775050000000     0.0507141  
H36      H      0.388680000000     0.171610000000     0.671870000000     0.0511392  
H37      H      0.830530000000     0.385020000000     0.143650000000     0.0502127  
H38      H      0.832100000000     0.319650000000     0.047330000000     0.0504522  
H39      H      0.810770000000     0.278650000000     0.105290000000     0.0504658  
H40      H      0.809300000000     0.343810000000     0.202100000000     0.0501286  
H41      H      0.216280000000     0.687620000000     0.039840000000     0.0499644  
H42      H      0.165840000000     0.617390000000     0.936540000000     0.0504297  
H43      H      0.185070000000     0.658320000000     0.878320000000     0.0501572  
H44      H      0.235930000000     0.728660000000     0.981310000000     0.0502052  
H45      H      0.053170000000     0.508260000000     0.995300000000     0.0509383  
H46      H      0.023980000000     0.535070000000     0.117930000000     0.0507864  
H47      H      0.968900000000     0.501350000000     0.095920000000     0.0505904  
H48      H      0.998230000000     0.474760000000     0.973220000000     0.0519011  
H49      H      0.566170000000     0.707720000000     0.748910000000     0.0502692  
H50      H      0.471370000000     0.677600000000     0.792540000000     0.0507765  
H51      H      0.451360000000     0.632510000000     0.741150000000     0.0500762  
H52      H      0.546200000000     0.662510000000     0.697880000000     0.0510239  
H53      H      0.908280000000     0.049940000000     0.011730000000     0.0501679  
H54      H      0.814260000000     0.020460000000     0.058510000000     0.0509407  
H55      H      0.793320000000     0.974980000000     0.007880000000     0.0502567  
H56      H      0.887280000000     0.004550000000     0.960760000000     0.0508228  
H57      H      0.690610000000     0.827200000000     0.954240000000     0.0510774  
H58      H      0.721940000000     0.876570000000     0.825920000000     0.0506726  
H59      H      0.667280000000     0.855940000000     0.803000000000     0.0510548  
H60      H      0.635940000000     0.806570000000     0.931310000000     0.0507211  
H61      H      0.479530000000     0.131670000000     0.897700000000     0.0506597  
H62      H      0.572230000000     0.187680000000     0.839490000000     0.0502416  
H63      H      0.552440000000     0.213260000000     0.789020000000     0.0504014  
H64      H      0.459810000000     0.157290000000     0.847460000000     0.0503979  
H65      H      0.548190000000     0.888430000000     0.180280000000     0.0504988  
H66      H      0.457710000000     0.836070000000     0.246320000000     0.0503387  
H67      H      0.478360000000     0.810810000000     0.295760000000     0.0504375  
H68      H      0.568800000000     0.863170000000     0.229600000000     0.0504243  
H69      H      0.475980000000     0.864380000000     0.934870000000     0.0504333  
H70      H      0.476620000000     0.799360000000     0.032730000000     0.0500096  
H71      H      0.498640000000     0.780120000000     0.974670000000     0.0502047  
H72      H      0.498170000000     0.845500000000     0.877350000000     0.0504471  
H73      H      0.534440000000     0.997040000000     0.109490000000     0.0511404  
H74      H      0.466660000000     0.969330000000     0.000230000000     0.0510322  
H75      H      0.489560000000     0.024230000000     0.977610000000     0.0507756  
H76      H      0.557280000000     0.051940000000     0.086950000000     0.0510138  
H77      H      0.147720000000     0.461730000000     0.227630000000     0.0507854  
H78      H      0.240720000000     0.523860000000     0.174160000000     0.0503921  
H79      H      0.219330000000     0.547990000000     0.123850000000     0.0503889  
H80      H      0.126390000000     0.485970000000     0.177570000000     0.0503109  
H81      H      0.124860000000     0.168980000000     0.583800000000     0.0503725  
H82      H      0.216060000000     0.221600000000     0.519870000000     0.0505161  
H83      H      0.236260000000     0.196560000000     0.570430000000     0.0504664  
H84      H      0.145110000000     0.143980000000     0.634530000000     0.0503414  
H85      H      0.204370000000     0.331410000000     0.444700000000     0.0506745  
H86      H      0.133640000000     0.303010000000     0.339590000000     0.0511552  
H87      H      0.156480000000     0.357580000000     0.315620000000     0.0508647  
H88      H      0.227190000000     0.386090000000     0.420780000000     0.0509667  
H89      H      0.127570000000     0.642010000000     0.676630000000     0.0501789  
H90      H      0.222000000000     0.678080000000     0.626010000000     0.0503952  
H91      H      0.240780000000     0.723420000000     0.676660000000     0.0500694  
H92      H      0.146280000000     0.687480000000     0.726930000000     0.0509022  
H93      H      0.217510000000     0.527910000000     0.540140000000     0.049981   
H94      H      0.184100000000     0.566110000000     0.436500000000     0.0502154  
H95      H      0.203920000000     0.545700000000     0.377230000000     0.0500161  
H96      H      0.237580000000     0.507770000000     0.480920000000     0.0503014  
H97      H      0.904730000000     0.376420000000     0.394790000000     0.0505575  
H98      H      0.815500000000     0.337890000000     0.464370000000     0.0504456  
H99      H      0.794190000000     0.291120000000     0.416100000000     0.0503892  
H100     H      0.883490000000     0.329700000000     0.346720000000     0.0505171  
H101     H      0.005420000000     0.529800000000     0.471000000000     0.0506039  
H102     H      0.977090000000     0.462430000000     0.580710000000     0.0510969  
H103     H      0.031890000000     0.485600000000     0.604400000000     0.0509397  
H104     H      0.060330000000     0.552900000000     0.494590000000     0.0508415  
H105     H      0.459780000000     0.312890000000     0.336320000000     0.0502425  
H106     H      0.554400000000     0.340730000000     0.294600000000     0.0504856  
H107     H      0.574910000000     0.386520000000     0.344640000000     0.0501153  
H108     H      0.480250000000     0.358870000000     0.385930000000     0.0510954  
H109     H      0.516380000000     0.234000000000     0.106820000000     0.0503101  
H110     H      0.537050000000     0.184380000000     0.209590000000     0.0502711  
H111     H      0.558880000000     0.165630000000     0.151100000000     0.0502632  
H112     H      0.537940000000     0.214900000000     0.048080000000     0.0500187  
H113     H      0.116310000000     0.966380000000     0.075970000000     0.0499627  
H114     H      0.211380000000     0.994250000000     0.036780000000     0.050995   
H115     H      0.231290000000     0.040310000000     0.086150000000     0.0502501  
H116     H      0.136240000000     0.012220000000     0.125820000000     0.0506404  
H117     H      0.164750000000     0.113760000000     0.307860000000     0.0502596  
H118     H      0.166790000000     0.181920000000     0.213550000000     0.050414   
H119     H      0.145340000000     0.200750000000     0.272240000000     0.0504751  
H120     H      0.143450000000     0.132950000000     0.367130000000     0.049969   
H121     H      0.332730000000     0.189910000000     0.133620000000     0.051018   
H122     H      0.302280000000     0.141310000000     0.262620000000     0.0506953  
H123     H      0.357110000000     0.162510000000     0.285120000000     0.0508592  
H124     H      0.387550000000     0.211140000000     0.156130000000     0.0508364  
H125     H      0.897990000000     0.527060000000     0.921810000000     0.0502109  
H126     H      0.802410000000     0.458610000000     0.958200000000     0.0507892  
H127     H      0.783090000000     0.483640000000     0.905930000000     0.0500294  
H128     H      0.878690000000     0.552340000000     0.870000000000     0.0510998  
H129     H      0.855550000000     0.494040000000     0.704410000000     0.0505041  
H130     H      0.785300000000     0.488640000000     0.610840000000     0.0501881  
H131     H      0.804840000000     0.467430000000     0.551950000000     0.0500541  
H132     H      0.874760000000     0.472750000000     0.646100000000     0.0505688  
H133     H      0.899600000000     0.843120000000     0.507120000000     0.0503405  
H134     H      0.809570000000     0.794290000000     0.575130000000     0.0503515  
H135     H      0.789850000000     0.820030000000     0.525070000000     0.0504647  
H136     H      0.879870000000     0.868900000000     0.457030000000     0.0505606  
H137     H      0.874700000000     0.811510000000     0.818890000000     0.0505598  
H138     H      0.883500000000     0.883050000000     0.725330000000     0.050106   
H139     H      0.861740000000     0.902580000000     0.783430000000     0.0503     
H140     H      0.852830000000     0.830690000000     0.876370000000     0.0505562  
H141     H      0.828960000000     0.683150000000     0.638190000000     0.050621   
H142     H      0.889480000000     0.712400000000     0.756580000000     0.0513119  
H143     H      0.868310000000     0.657620000000     0.778080000000     0.0511493  
H144     H      0.807920000000     0.628200000000     0.659550000000     0.0506791  
H145     H      0.026150000000     0.220660000000     0.029800000000     0.0510336  
H146     H      0.059250000000     0.159580000000     0.076680000000     0.0499764  
H147     H      0.014040000000     0.133330000000     0.127920000000     0.0505669  
H148     H      0.980780000000     0.194200000000     0.080640000000     0.0501186  
H149     H      0.226860000000     0.208110000000     0.051050000000     0.0510516  
H150     H      0.158860000000     0.113320000000     0.011110000000     0.0499518  
H151     H      0.133950000000     0.133370000000     0.959850000000     0.0506322  
H152     H      0.201740000000     0.228120000000     0.000230000000     0.0502081  
H153     H      0.303820000000     0.528410000000     0.676540000000     0.0499175  
H154     H      0.331560000000     0.461730000000     0.716340000000     0.0510596  
H155     H      0.377340000000     0.487830000000     0.666130000000     0.0501811  
H156     H      0.349370000000     0.554250000000     0.625860000000     0.0505972  
H157     H      0.160400000000     0.455440000000     0.741670000000     0.0502633  
H158     H      0.222530000000     0.548470000000     0.794440000000     0.0507301  
H159     H      0.198210000000     0.569500000000     0.743820000000     0.0501744  
H160     H      0.135970000000     0.476410000000     0.691310000000     0.050773   
H161     H      0.206420000000     0.354170000000     0.799540000000     0.0510918  
H162     H      0.186750000000     0.384340000000     0.927420000000     0.0506583  
H163     H      0.152990000000     0.329580000000     0.950120000000     0.0508798  
H164     H      0.172670000000     0.299440000000     0.822210000000     0.0507965  
H165     H      0.693620000000     0.142800000000     0.861360000000     0.050992   
H166     H      0.725920000000     0.237120000000     0.908530000000     0.0501049  
H167     H      0.680820000000     0.217230000000     0.960130000000     0.0505242  
H168     H      0.648410000000     0.122990000000     0.912520000000     0.0502072  
H169     H      0.802260000000     0.339500000000     0.792370000000     0.0507267  
H170     H      0.868110000000     0.310920000000     0.833810000000     0.0501652  
H171     H      0.893190000000     0.355600000000     0.885940000000     0.0511432  
H172     H      0.827100000000     0.383970000000     0.844950000000     0.0500642  
H173     H      0.011190000000     0.141150000000     0.455250000000     0.0504272  
H174     H      0.048560000000     0.231700000000     0.519880000000     0.0503774  
H175     H      0.002130000000     0.210810000000     0.568700000000     0.0504575  
H176     H      0.964700000000     0.120200000000     0.504260000000     0.0502129  
H177     H      0.882180000000     0.006970000000     0.630700000000     0.0505158  
H178     H      0.823640000000     0.039280000000     0.570570000000     0.0504033  
H179     H      0.799400000000     0.993200000000     0.521010000000     0.0507287  
H180     H      0.858040000000     0.960930000000     0.580910000000     0.0504603  
H181     H      0.021610000000     0.144040000000     0.715940000000     0.0499446  
H182     H      0.953230000000     0.135760000000     0.815560000000     0.0502649  
H183     H      0.994100000000     0.157460000000     0.873910000000     0.0511993  
H184     H      0.062630000000     0.165520000000     0.774730000000     0.0501776  
H185     H      0.843120000000     0.132550000000     0.753320000000     0.0511653  
H186     H      0.875480000000     0.192920000000     0.634930000000     0.0507311  
H187     H      0.842950000000     0.215140000000     0.657230000000     0.0507613  
H188     H      0.810830000000     0.154860000000     0.775720000000     0.0509954  
H189     H      0.390150000000     0.826460000000     0.745770000000     0.0501814  
H190     H      0.358800000000     0.887850000000     0.693920000000     0.0508219  
H191     H      0.313440000000     0.863350000000     0.744990000000     0.0503453  
H192     H      0.344810000000     0.802030000000     0.797100000000     0.0506174  
H193     H      0.469340000000     0.799350000000     0.626710000000     0.0505841  
H194     H      0.534130000000     0.893990000000     0.671200000000     0.0501893  
H195     H      0.560080000000     0.874420000000     0.721190000000     0.0510622  
H196     H      0.495050000000     0.779730000000     0.677150000000     0.0500308  
H197     H      0.665980000000     0.125860000000     0.403000000000     0.0505537  
H198     H      0.630780000000     0.180070000000     0.336880000000     0.0502359  
H199     H      0.677290000000     0.204530000000     0.287720000000     0.0505104  
H200     H      0.712430000000     0.150340000000     0.354070000000     0.0504259  
H201     H      0.462770000000     0.140920000000     0.357930000000     0.0508807  
H202     H      0.524190000000     0.233670000000     0.412210000000     0.050099   
H203     H      0.548950000000     0.212590000000     0.461880000000     0.0505784  
H204     H      0.487680000000     0.119920000000     0.407260000000     0.0502916  
H205     H      0.619070000000     0.158350000000     0.648610000000     0.0504188  
H206     H      0.688290000000     0.214040000000     0.546550000000     0.0501402  
H207     H      0.729510000000     0.234050000000     0.604990000000     0.0501937  
H208     H      0.660140000000     0.178060000000     0.706700000000     0.0502774  
H209     H      0.477040000000     0.992700000000     0.612170000000     0.050787   
H210     H      0.508560000000     0.964140000000     0.493750000000     0.0508421  
H211     H      0.540740000000     0.018990000000     0.470530000000     0.0507657  
H212     H      0.509130000000     0.047520000000     0.588880000000     0.0511133  
H213     H      0.029110000000     0.808290000000     0.533430000000     0.0510308  
H214     H      0.058780000000     0.901300000000     0.584020000000     0.0501987  
H215     H      0.012710000000     0.879650000000     0.633960000000     0.0503968  
H216     H      0.982960000000     0.786720000000     0.582960000000     0.0503135  
H217     H      0.200730000000     0.974200000000     0.525900000000     0.0503038  
H218     H      0.146940000000     0.010540000000     0.461360000000     0.0505135  
H219     H      0.171980000000     0.056570000000     0.511010000000     0.0504534  
H220     H      0.225810000000     0.020270000000     0.575480000000     0.0504803  
H221     H      0.297870000000     0.783560000000     0.172460000000     0.0502393  
H222     H      0.332640000000     0.875740000000     0.230310000000     0.0508382  
H223     H      0.378360000000     0.896740000000     0.179980000000     0.05045    
H224     H      0.343570000000     0.804640000000     0.121830000000     0.0503953  
H225     H      0.212830000000     0.672670000000     0.297550000000     0.0504376  
H226     H      0.156850000000     0.707840000000     0.236910000000     0.0503167  
H227     H      0.131600000000     0.661920000000     0.187110000000     0.0505595  
H228     H      0.187620000000     0.626760000000     0.247640000000     0.0502174  
H229     H      0.399370000000     0.840560000000     0.437690000000     0.0503164  
H230     H      0.327240000000     0.808960000000     0.541160000000     0.0499907  
H231     H      0.286780000000     0.788610000000     0.481910000000     0.0504224  
H232     H      0.358900000000     0.820510000000     0.378370000000     0.0501029  
H233     H      0.179460000000     0.799660000000     0.425660000000     0.0510568  
H234     H      0.211150000000     0.861040000000     0.308340000000     0.050771   
H235     H      0.179370000000     0.883590000000     0.332830000000     0.050897   
H236     H      0.147750000000     0.822210000000     0.450150000000     0.0509077  
H237     H      0.690830000000     0.554810000000     0.351430000000     0.050496   
H238     H      0.726580000000     0.500460000000     0.415630000000     0.0504857  
H239     H      0.680070000000     0.475210000000     0.464610000000     0.0507268  
H240     H      0.644320000000     0.529520000000     0.400310000000     0.050382   
H241     H      0.868220000000     0.564800000000     0.356970000000     0.0504895  
H242     H      0.816250000000     0.475370000000     0.288520000000     0.0504746  
H243     H      0.842010000000     0.454500000000     0.336520000000     0.0504898  
H244     H      0.894010000000     0.543990000000     0.404810000000     0.0505     
H245     H      0.967640000000     0.854260000000     0.010710000000     0.0502518  
H246     H      0.003450000000     0.798330000000     0.069340000000     0.0506058  
H247     H      0.048780000000     0.823250000000     0.018260000000     0.0502632  
H248     H      0.013010000000     0.879170000000     0.959460000000     0.0508424  
H249     H      0.891130000000     0.885450000000     0.128770000000     0.050491   
H250     H      0.824830000000     0.790180000000     0.088650000000     0.0501743  
H251     H      0.798710000000     0.809230000000     0.038040000000     0.0510748  
H252     H      0.865300000000     0.904550000000     0.077590000000     0.0499945  
H253     H      0.958190000000     0.835560000000     0.323270000000     0.0500743  
H254     H      0.030210000000     0.881610000000     0.220610000000     0.0499073  
H255     H      0.070650000000     0.901030000000     0.280030000000     0.0503824  
H256     H      0.998570000000     0.854650000000     0.382510000000     0.051119   
H257     H      0.846080000000     0.719040000000     0.259250000000     0.0510683  
H258     H      0.886030000000     0.692220000000     0.149250000000     0.0507893  
H259     H      0.853950000000     0.637260000000     0.171850000000     0.0511227  
H260     H      0.813880000000     0.664030000000     0.281750000000     0.0507512  
H261     H      0.669040000000     0.540210000000     0.884490000000     0.0510653  
H262     H      0.639230000000     0.444740000000     0.846250000000     0.0501088  
H263     H      0.684200000000     0.463680000000     0.794670000000     0.0506716  
H264     H      0.714290000000     0.559120000000     0.833450000000     0.0501746  
H265     H      0.497890000000     0.380770000000     0.903200000000     0.050326   
H266     H      0.551680000000     0.343210000000     0.964140000000     0.05065    
H267     H      0.526010000000     0.297750000000     0.913440000000     0.0503201  
H268     H      0.472170000000     0.335290000000     0.852630000000     0.0505331  
H269     H      0.701490000000     0.511580000000     0.046450000000     0.0503876  
H270     H      0.632850000000     0.447200000000     0.142850000000     0.0502138  
H271     H      0.673440000000     0.466580000000     0.202330000000     0.049861   
H272     H      0.741880000000     0.530590000000     0.105400000000     0.0505231  
H273     H      0.356560000000     0.473330000000     0.179500000000     0.050413   
H274     H      0.397830000000     0.563650000000     0.245920000000     0.0504414  
H275     H      0.352010000000     0.543900000000     0.295990000000     0.0504393  
H276     H      0.310760000000     0.453590000000     0.229530000000     0.0504061  
H277     H      0.479040000000     0.676720000000     0.118960000000     0.0504178  
H278     H      0.536510000000     0.643240000000     0.179410000000     0.0504745  
H279     H      0.560690000000     0.688920000000     0.229710000000     0.0506164  
H280     H      0.503170000000     0.722410000000     0.169460000000     0.0504133  
H281     H      0.340800000000     0.544150000000     0.030400000000     0.0499178  
H282     H      0.406350000000     0.542770000000     0.933970000000     0.0505024  
H283     H      0.365190000000     0.520780000000     0.876150000000     0.0504914  
H284     H      0.299440000000     0.522310000000     0.972030000000     0.0502536  
H285     H      0.520650000000     0.554260000000     0.998740000000     0.0512621  
H286     H      0.484230000000     0.489790000000     0.112330000000     0.0506807  
H287     H      0.517430000000     0.468260000000     0.090430000000     0.0507342  
H288     H      0.553610000000     0.532620000000     0.976690000000     0.0511607  
N1       N      0.649090000000     0.824540000000     0.359620000000    -0.160729   
N2       N      0.712150000000     0.859730000000     0.388360000000    -0.160802   
N3       N      0.882400000000     0.025970000000     0.259610000000    -0.161417   
N4       N      0.860110000000     0.979090000000     0.327270000000    -0.161052   
N5       N      0.832400000000     0.186640000000     0.228140000000    -0.160618   
N6       N      0.858330000000     0.149620000000     0.201990000000    -0.160849   
N7       N      0.482470000000     0.657740000000     0.494130000000    -0.160982   
N8       N      0.503850000000     0.704530000000     0.426340000000    -0.161318   
N9       N      0.525250000000     0.491790000000     0.528610000000    -0.160907   
N10      N      0.501210000000     0.530530000000     0.554320000000    -0.160829   
N11      N      0.191330000000     0.823330000000     0.865490000000    -0.160853   
N12      N      0.167280000000     0.862080000000     0.891330000000    -0.160898   
N13      N      0.524690000000     0.317930000000     0.654950000000    -0.161296   
N14      N      0.545260000000     0.364900000000     0.587480000000    -0.160773   
N15      N      0.170620000000     0.038040000000     0.768160000000    -0.161123   
N16      N      0.148990000000     0.990290000000     0.834560000000    -0.160676   
N17      N      0.316470000000     0.159740000000     0.699650000000    -0.160637   
N18      N      0.380050000000     0.196810000000     0.725160000000    -0.160668   
N19      N      0.833670000000     0.355710000000     0.091420000000    -0.161046   
N20      N      0.809090000000     0.308280000000     0.158420000000    -0.16123    
N21      N      0.188970000000     0.649450000000     0.992770000000    -0.161052   
N22      N      0.211370000000     0.696710000000     0.925570000000    -0.16097    
N23      N      0.042760000000     0.524240000000     0.058300000000    -0.160712   
N24      N      0.979370000000     0.485470000000     0.032910000000    -0.160537   
N25      N      0.520110000000     0.696840000000     0.772900000000    -0.161173   
N26      N      0.497190000000     0.644990000000     0.714070000000    -0.160774   
N27      N      0.862970000000     0.037730000000     0.040540000000    -0.160653   
N28      N      0.838910000000     0.985570000000     0.982170000000    -0.16091    
N29      N      0.710440000000     0.853410000000     0.891790000000    -0.160919   
N30      N      0.647440000000     0.829680000000     0.865400000000    -0.160912   
N31      N      0.527660000000     0.158820000000     0.873870000000    -0.160834   
N32      N      0.505010000000     0.188260000000     0.816000000000    -0.161437   
N33      N      0.501030000000     0.863080000000     0.208190000000    -0.161107   
N34      N      0.524680000000     0.834020000000     0.264950000000    -0.161481   
N35      N      0.475300000000     0.833840000000     0.988500000000    -0.161245   
N36      N      0.500840000000     0.811900000000     0.921980000000    -0.16086    
N37      N      0.498840000000     0.979000000000     0.056560000000    -0.160432   
N38      N      0.525170000000     0.042270000000     0.030520000000    -0.160672   
N39      N      0.196020000000     0.491970000000     0.206170000000    -0.160666   
N40      N      0.171520000000     0.519770000000     0.148480000000    -0.161538   
N41      N      0.168600000000     0.196140000000     0.546680000000    -0.160955   
N42      N      0.191800000000     0.167370000000     0.604930000000    -0.16131    
N43      N      0.167350000000     0.313040000000     0.393880000000    -0.160652   
N44      N      0.193620000000     0.375980000000     0.366270000000    -0.160802   
N45      N      0.173660000000     0.655950000000     0.649120000000    -0.161448   
N46      N      0.195150000000     0.708080000000     0.707100000000    -0.160743   
N47      N      0.198460000000     0.547760000000     0.492760000000    -0.161266   
N48      N      0.221450000000     0.524390000000     0.424590000000    -0.161325   
N49      N      0.861250000000     0.361240000000     0.431810000000    -0.161463   
N50      N      0.836850000000     0.307550000000     0.376450000000    -0.161128   
N51      N      0.987060000000     0.494430000000     0.524130000000    -0.160409   
N52      N      0.050280000000     0.521060000000     0.551390000000    -0.160688   
N53      N      0.505680000000     0.322630000000     0.313360000000    -0.161469   
N54      N      0.529180000000     0.375310000000     0.370600000000    -0.160782   
N55      N      0.524300000000     0.209970000000     0.162450000000    -0.161051   
N56      N      0.549340000000     0.188180000000     0.095010000000    -0.161339   
N57      N      0.162300000000     0.977730000000     0.051010000000    -0.160908   
N58      N      0.185140000000     0.030470000000     0.108000000000    -0.161066   
N59      N      0.168130000000     0.146900000000     0.256590000000    -0.160914   
N60      N      0.143430000000     0.168780000000     0.324480000000    -0.161376   
N61      N      0.313320000000     0.164030000000     0.196430000000    -0.160921   
N62      N      0.376510000000     0.188440000000     0.222350000000    -0.160935   
N63      N      0.851570000000     0.490050000000     0.942200000000    -0.16113    
N64      N      0.829430000000     0.518940000000     0.882420000000    -0.160795   
N65      N      0.819450000000     0.493720000000     0.661680000000    -0.161019   
N66      N      0.841760000000     0.469150000000     0.594230000000    -0.161222   
N67      N      0.856480000000     0.817870000000     0.546240000000    -0.161291   
N68      N      0.833870000000     0.847490000000     0.488690000000    -0.161399   
N69      N      0.880170000000     0.845400000000     0.767380000000    -0.1612     
N70      N      0.854960000000     0.867690000000     0.833920000000    -0.160828   
N71      N      0.860750000000     0.701960000000     0.695800000000    -0.160665   
N72      N      0.836480000000     0.638730000000     0.720500000000    -0.160857   
N73      N      0.045250000000     0.191080000000     0.047840000000    -0.160789   
N74      N      0.993260000000     0.160800000000     0.106460000000    -0.161102   
N75      N      0.193790000000     0.159160000000     0.036540000000    -0.16076    
N76      N      0.165050000000     0.182130000000     0.977900000000    -0.161271   
N77      N      0.315160000000     0.494070000000     0.701860000000    -0.160848   
N78      N      0.367570000000     0.523900000000     0.643940000000    -0.161303   
N79      N      0.194300000000     0.500640000000     0.770260000000    -0.161043   
N80      N      0.166280000000     0.524730000000     0.712230000000    -0.160719   
N81      N      0.199190000000     0.373430000000     0.861770000000    -0.160896   
N82      N      0.160240000000     0.310330000000     0.887890000000    -0.160959   
N83      N      0.712270000000     0.191600000000     0.879490000000    -0.160795   
N84      N      0.660450000000     0.168850000000     0.938490000000    -0.161534   
N85      N      0.832340000000     0.321030000000     0.810890000000    -0.161397   
N86      N      0.861000000000     0.372180000000     0.871000000000    -0.160785   
N87      N      0.034000000000     0.187570000000     0.485400000000    -0.161447   
N88      N      0.980650000000     0.163580000000     0.541600000000    -0.160906   
N89      N      0.855750000000     0.027280000000     0.602850000000    -0.161484   
N90      N      0.827950000000     0.974390000000     0.545770000000    -0.160906   
N91      N      0.984440000000     0.138930000000     0.761070000000    -0.160958   
N92      N      0.031660000000     0.163870000000     0.828480000000    -0.160774   
N93      N      0.861820000000     0.161090000000     0.692450000000    -0.160714   
N94      N      0.824440000000     0.186720000000     0.718200000000    -0.160951   
N95      N      0.377020000000     0.857950000000     0.714450000000    -0.160769   
N96      N      0.324950000000     0.829840000000     0.773290000000    -0.161232   
N97      N      0.498840000000     0.847950000000     0.646900000000    -0.161508   
N98      N      0.528520000000     0.825490000000     0.704550000000    -0.160811   
N99      N      0.645630000000     0.152210000000     0.375040000000    -0.161053   
N100     N      0.699010000000     0.180340000000     0.318680000000    -0.161471   
N101     N      0.492650000000     0.189090000000     0.379800000000    -0.160917   
N102     N      0.521190000000     0.164970000000     0.436650000000    -0.161546   
N103     N      0.650670000000     0.184070000000     0.592970000000    -0.16119    
N104     N      0.698100000000     0.206940000000     0.660000000000    -0.16121    
N105     N      0.490360000000     0.974240000000     0.554760000000    -0.160973   
N106     N      0.527430000000     0.037440000000     0.527960000000    -0.160599   
N107     N      0.046570000000     0.856570000000     0.553420000000    -0.160649   
N108     N      0.993630000000     0.831790000000     0.610560000000    -0.161261   
N109     N      0.170890000000     0.988260000000     0.491370000000    -0.161379   
N110     N      0.199700000000     0.041140000000     0.548380000000    -0.161102   
N111     N      0.312600000000     0.827820000000     0.206640000000    -0.160777   
N112     N      0.365090000000     0.851940000000     0.148620000000    -0.161517   
N113     N      0.187810000000     0.694400000000     0.269400000000    -0.161602   
N114     N      0.158820000000     0.641690000000     0.212140000000    -0.161007   
N115     N      0.366430000000     0.827060000000     0.493850000000    -0.161319   
N116     N      0.319790000000     0.803780000000     0.425630000000    -0.161213   
N117     N      0.197750000000     0.828660000000     0.365130000000    -0.160899   
N118     N      0.161130000000     0.854600000000     0.393350000000    -0.160948   
N119     N      0.711490000000     0.528520000000     0.378470000000    -0.160976   
N120     N      0.658070000000     0.499450000000     0.434720000000    -0.161192   
N121     N      0.839290000000     0.521210000000     0.320500000000    -0.161448   
N122     N      0.868950000000     0.497300000000     0.375600000000    -0.161087   
N123     N      0.982950000000     0.825510000000     0.045340000000    -0.160501   
N124     N      0.035020000000     0.854150000000     0.986540000000    -0.161018   
N125     N      0.860830000000     0.836530000000     0.110840000000    -0.161471   
N126     N      0.830990000000     0.858390000000     0.052400000000    -0.160865   
N127     N      0.991170000000     0.856410000000     0.267350000000    -0.161198   
N128     N      0.037750000000     0.878590000000     0.335620000000    -0.16095    
N129     N      0.868500000000     0.709820000000     0.202500000000    -0.160756   
N130     N      0.831430000000     0.646450000000     0.228500000000    -0.160692   
N131     N      0.651630000000     0.491010000000     0.870830000000    -0.160737   
N132     N      0.703400000000     0.512700000000     0.811870000000    -0.16114    
N133     N      0.527770000000     0.366080000000     0.936000000000    -0.161143   
N134     N      0.498230000000     0.313850000000     0.877800000000    -0.161016   
N135     N      0.663870000000     0.478500000000     0.090490000000    -0.160973   
N136     N      0.710580000000     0.500610000000     0.158660000000    -0.161254   
N137     N      0.379940000000     0.520360000000     0.207590000000    -0.161147   
N138     N      0.327340000000     0.497730000000     0.265100000000    -0.161466   
N139     N      0.504920000000     0.655860000000     0.146880000000    -0.161427   
N140     N      0.532690000000     0.708310000000     0.204810000000    -0.160981   
N141     N      0.376550000000     0.544490000000     0.986910000000    -0.161195   
N142     N      0.328940000000     0.519160000000     0.920020000000    -0.160844   
N143     N      0.499840000000     0.523600000000     0.057140000000    -0.160723   
N144     N      0.538000000000     0.498760000000     0.031830000000    -0.160929   
O1       O      0.392990000000     0.556410000000     0.062570000000    -0.244756   
O2       O      0.422440000000     0.562720000000     0.172320000000    -0.244914   
O3       O      0.490910000000     0.604010000000     0.134080000000    -0.245954   
O4       O      0.481880000000     0.558660000000     0.047430000000    -0.240646   
O5       O      0.462260000000     0.525400000000     0.103580000000    -0.240475   
O6       O      0.463340000000     0.621140000000     0.100190000000    -0.243483   
O7       O      0.426070000000     0.556740000000     0.013630000000    -0.242612   
O8       O      0.402720000000     0.517150000000     0.139460000000    -0.239858   
O9       O      0.646390000000     0.484340000000     0.019590000000    -0.247311   
O10      O      0.573420000000     0.495320000000     0.982800000000    -0.240412   
O11      O      0.569960000000     0.399330000000     0.982910000000    -0.240322   
O12      O      0.626720000000     0.498740000000     0.933040000000    -0.23456    
O13      O      0.614790000000     0.450960000000     0.916950000000    -0.244411   
O14      O      0.543920000000     0.418440000000     0.949430000000    -0.246564   
O15      O      0.611780000000     0.449080000000     0.064900000000    -0.239812   
O16      O      0.556330000000     0.463910000000     0.041180000000    -0.245022   
O17      O      0.976160000000     0.845130000000     0.191240000000    -0.246071   
O18      O      0.960170000000     0.798730000000     0.113070000000    -0.236784   
O19      O      0.904830000000     0.845230000000     0.152650000000    -0.243322   
O20      O      0.885280000000     0.762890000000     0.210950000000    -0.241273   
O21      O      0.904970000000     0.749480000000     0.154930000000    -0.240442   
O22      O      0.873420000000     0.798160000000     0.127170000000    -0.246112   
O23      O      0.939560000000     0.823790000000     0.242380000000    -0.242298   
O24      O      0.942990000000     0.827800000000     0.084170000000    -0.244117   
O25      O      0.798090000000     0.513550000000     0.272630000000    -0.243693   
O26      O      0.736270000000     0.555820000000     0.311890000000    -0.239027   
O27      O      0.760250000000     0.537550000000     0.185950000000    -0.242512   
O28      O      0.814960000000     0.593460000000     0.220160000000    -0.240975   
O29      O      0.794060000000     0.606550000000     0.274930000000    -0.240136   
O30      O      0.725740000000     0.506300000000     0.235030000000    -0.245082   
O31      O      0.823140000000     0.557520000000     0.309830000000    -0.246076   
O32      O      0.753200000000     0.527310000000     0.343460000000    -0.24418    
O33      O      0.304670000000     0.802290000000     0.350050000000    -0.246043   
O34      O      0.232170000000     0.824570000000     0.314710000000    -0.240667   
O35      O      0.230150000000     0.728700000000     0.315160000000    -0.243566   
O36      O      0.288720000000     0.831700000000     0.273140000000    -0.236849   
O37      O      0.272630000000     0.785140000000     0.245330000000    -0.243794   
O38      O      0.202880000000     0.746550000000     0.282230000000    -0.246801   
O39      O      0.267960000000     0.783810000000     0.401310000000    -0.240797   
O40      O      0.215830000000     0.793600000000     0.373600000000    -0.242757   
O41      O      0.129180000000     0.954370000000     0.444350000000    -0.242813   
O42      O      0.127020000000     0.858820000000     0.444180000000    -0.240637   
O43      O      0.090090000000     0.902320000000     0.359820000000    -0.240002   
O44      O      0.085020000000     0.899060000000     0.512530000000    -0.243583   
O45      O      0.071820000000     0.852200000000     0.488860000000    -0.235714   
O46      O      0.053440000000     0.876130000000     0.409550000000    -0.246608   
O47      O      0.155510000000     0.935990000000     0.478780000000    -0.246681   
O48      O      0.142780000000     0.889480000000     0.384970000000    -0.24391    
O49      O      0.634810000000     0.175510000000     0.516920000000    -0.24515    
O50      O      0.621420000000     0.126290000000     0.442630000000    -0.238968   
O51      O      0.563770000000     0.172330000000     0.480910000000    -0.244229   
O52      O      0.546100000000     0.090800000000     0.537860000000    -0.240938   
O53      O      0.562610000000     0.076690000000     0.478690000000    -0.240641   
O54      O      0.534450000000     0.126710000000     0.449610000000    -0.246685   
O55      O      0.599720000000     0.148590000000     0.568230000000    -0.241533   
O56      O      0.604390000000     0.154380000000     0.409960000000    -0.244171   
O57      O      0.418720000000     0.856520000000     0.517990000000    -0.240988   
O58      O      0.456160000000     0.935150000000     0.605010000000    -0.240444   
O59      O      0.454920000000     0.839420000000     0.605070000000    -0.242868   
O60      O      0.415380000000     0.854260000000     0.673290000000    -0.243995   
O61      O      0.400800000000     0.886400000000     0.648250000000    -0.236021   
O62      O      0.485910000000     0.886230000000     0.631780000000    -0.246589   
O63      O      0.382080000000     0.842960000000     0.568670000000    -0.246655   
O64      O      0.471630000000     0.920850000000     0.544950000000    -0.24271    
O65      O      0.897520000000     0.062480000000     0.648780000000    -0.243972   
O66      O      0.956810000000     0.166360000000     0.608830000000    -0.239034   
O67      O      0.934030000000     0.124220000000     0.735230000000    -0.241651   
O68      O      0.880180000000     0.126410000000     0.703030000000    -0.240971   
O69      O      0.897690000000     0.157590000000     0.644340000000    -0.240415   
O70      O      0.968740000000     0.129960000000     0.684910000000    -0.244813   
O71      O      0.869430000000     0.079100000000     0.615170000000    -0.24643    
O72      O      0.938830000000     0.120640000000     0.577040000000    -0.244479   
O73      O      0.788520000000     0.285420000000     0.768700000000    -0.24169    
O74      O      0.790280000000     0.191440000000     0.768230000000    -0.240949   
O75      O      0.750740000000     0.234310000000     0.683410000000    -0.240679   
O76      O      0.749990000000     0.232890000000     0.835960000000    -0.244112   
O77      O      0.735670000000     0.185420000000     0.814170000000    -0.235058   
O78      O      0.715550000000     0.203530000000     0.732220000000    -0.247089   
O79      O      0.820000000000     0.270090000000     0.794050000000    -0.246393   
O80      O      0.805370000000     0.220880000000     0.707690000000    -0.243953   
O81      O      0.237080000000     0.508120000000     0.814210000000    -0.240202   
O82      O      0.232060000000     0.412050000000     0.809980000000    -0.240536   
O83      O      0.276900000000     0.498010000000     0.895130000000    -0.239238   
O84      O      0.278460000000     0.497820000000     0.747110000000    -0.244754   
O85      O      0.289720000000     0.461800000000     0.764370000000    -0.234982   
O86      O      0.309990000000     0.494670000000     0.850050000000    -0.246795   
O87      O      0.207060000000     0.462100000000     0.784220000000    -0.246343   
O88      O      0.222090000000     0.427240000000     0.874230000000    -0.245338   
O89      O      0.121070000000     0.174350000000     0.936940000000    -0.241231   
O90      O      0.083350000000     0.188480000000     0.004460000000    -0.24461    
O91      O      0.049440000000     0.186140000000     0.900030000000    -0.246494   
O92      O      0.137420000000     0.256570000000     0.875290000000    -0.244721   
O93      O      0.127530000000     0.271620000000     0.939720000000    -0.241021   
O94      O      0.084010000000     0.187440000000     0.852910000000    -0.239671   
O95      O      0.153650000000     0.221350000000     0.961670000000    -0.246428   
O96      O      0.068930000000     0.221470000000     0.983070000000    -0.235492   
O97      O      0.894420000000     0.842590000000     0.692390000000    -0.244139   
O98      O      0.863120000000     0.741220000000     0.648650000000    -0.240509   
O99      O      0.957560000000     0.838260000000     0.653920000000    -0.243345   
O100     O      0.853540000000     0.792610000000     0.614930000000    -0.240871   
O101     O      0.898890000000     0.817920000000     0.580970000000    -0.245199   
O102     O      0.941960000000     0.792620000000     0.623550000000    -0.246069   
O103     O      0.890670000000     0.807320000000     0.739970000000    -0.242509   
O104     O      0.894610000000     0.755480000000     0.707130000000    -0.23986    
O105     O      0.788000000000     0.513690000000     0.687360000000    -0.240304   
O106     O      0.837180000000     0.551160000000     0.819660000000    -0.234812   
O107     O      0.738630000000     0.503840000000     0.770450000000    -0.239785   
O108     O      0.803160000000     0.584990000000     0.709370000000    -0.244554   
O109     O      0.832380000000     0.599990000000     0.770230000000    -0.240313   
O110     O      0.754850000000     0.551110000000     0.795210000000    -0.246346   
O111     O      0.825680000000     0.518730000000     0.731270000000    -0.247638   
O112     O      0.789420000000     0.514270000000     0.835130000000    -0.244653   
O113     O      0.177190000000     0.066760000000     0.147910000000    -0.240505   
O114     O      0.274660000000     0.157660000000     0.144500000000    -0.240408   
O115     O      0.188820000000     0.116170000000     0.230670000000    -0.239505   
O116     O      0.189220000000     0.118410000000     0.081850000000    -0.244696   
O117     O      0.225500000000     0.165900000000     0.099630000000    -0.235447   
O118     O      0.192360000000     0.152950000000     0.186280000000    -0.246991   
O119     O      0.224340000000     0.081770000000     0.123340000000    -0.246558   
O120     O      0.259380000000     0.133380000000     0.209530000000    -0.244971   
O121     O      0.497010000000     0.234880000000     0.186050000000    -0.239743   
O122     O      0.415190000000     0.194940000000     0.274340000000    -0.240986   
O123     O      0.513060000000     0.286380000000     0.272320000000    -0.242667   
O124     O      0.463990000000     0.184800000000     0.314150000000    -0.23616    
O125     O      0.496450000000     0.231590000000     0.339980000000    -0.244198   
O126     O      0.466140000000     0.271570000000     0.297530000000    -0.246764   
O127     O      0.504860000000     0.207020000000     0.235670000000    -0.246253   
O128     O      0.430440000000     0.219550000000     0.209580000000    -0.243613   
O129     O      0.853980000000     0.394660000000     0.480140000000    -0.243504   
O130     O      0.947540000000     0.492150000000     0.477440000000    -0.239947   
O131     O      0.845540000000     0.456950000000     0.518470000000    -0.2446     
O132     O      0.896000000000     0.499580000000     0.442200000000    -0.240179   
O133     O      0.868610000000     0.454370000000     0.408670000000    -0.24454    
O134     O      0.880160000000     0.459230000000     0.566220000000    -0.242639   
O135     O      0.897720000000     0.414110000000     0.442080000000    -0.246062   
O136     O      0.933770000000     0.457770000000     0.531980000000    -0.240701   
O137     O      0.168090000000     0.569220000000     0.516820000000    -0.241278   
O138     O      0.089270000000     0.524790000000     0.600550000000    -0.24024    
O139     O      0.183350000000     0.622510000000     0.604680000000    -0.242875   
O140     O      0.137510000000     0.520180000000     0.646520000000    -0.23594    
O141     O      0.170320000000     0.567080000000     0.671660000000    -0.243691   
O142     O      0.136760000000     0.603790000000     0.634070000000    -0.246695   
O143     O      0.182770000000     0.547460000000     0.567680000000    -0.246872   
O144     O      0.103620000000     0.557980000000     0.544410000000    -0.242653   
O145     O      0.131920000000     0.172890000000     0.400490000000    -0.244981   
O146     O      0.172140000000     0.222820000000     0.479130000000    -0.239548   
O147     O      0.067860000000     0.179870000000     0.438540000000    -0.243289   
O148     O      0.130190000000     0.259910000000     0.387260000000    -0.240754   
O149     O      0.165990000000     0.273710000000     0.439820000000    -0.240062   
O150     O      0.086760000000     0.224340000000     0.474300000000    -0.24601    
O151     O      0.132100000000     0.206170000000     0.352290000000    -0.243444   
O152     O      0.126100000000     0.195060000000     0.510490000000    -0.244569   
O153     O      0.221800000000     0.509680000000     0.349300000000    -0.246692   
O154     O      0.196130000000     0.414790000000     0.318070000000    -0.240212   
O155     O      0.295180000000     0.506850000000     0.313550000000    -0.242853   
O156     O      0.191830000000     0.463030000000     0.271470000000    -0.236061   
O157     O      0.238700000000     0.495950000000     0.245960000000    -0.243361   
O158     O      0.274440000000     0.462110000000     0.278070000000    -0.246536   
O159     O      0.241130000000     0.492540000000     0.400420000000    -0.241513   
O160     O      0.231290000000     0.429080000000     0.371570000000    -0.242874   
O161     O      0.462740000000     0.870780000000     0.014640000000    -0.242834   
O162     O      0.458140000000     0.861900000000     0.173150000000    -0.244481   
O163     O      0.399320000000     0.844570000000     0.102150000000    -0.243499   
O164     O      0.462180000000     0.925790000000     0.048330000000    -0.240415   
O165     O      0.496560000000     0.939470000000     0.102970000000    -0.240177   
O166     O      0.417260000000     0.889760000000     0.135370000000    -0.24597    
O167     O      0.464190000000     0.839050000000     0.064220000000    -0.244984   
O168     O      0.503780000000     0.889220000000     0.140490000000    -0.239434   
O169     O      0.625700000000     0.177130000000     0.982200000000    -0.243341   
O170     O      0.522980000000     0.131310000000     0.940950000000    -0.237411   
O171     O      0.554710000000     0.178130000000     0.018960000000    -0.246131   
O172     O      0.561920000000     0.095440000000     0.038660000000    -0.241489   
O173     O      0.528240000000     0.081710000000     0.983110000000    -0.240358   
O174     O      0.567450000000     0.155130000000     0.070460000000    -0.242406   
O175     O      0.608640000000     0.130740000000     0.953470000000    -0.246302   
O176     O      0.569760000000     0.160680000000     0.912530000000    -0.244176   
O177     O      0.836020000000     0.900060000000     0.859350000000    -0.239018   
O178     O      0.748750000000     0.858990000000     0.943820000000    -0.24066    
O179     O      0.846150000000     0.949720000000     0.939700000000    -0.239544   
O180     O      0.798590000000     0.850890000000     0.989880000000    -0.235211   
O181     O      0.834840000000     0.898600000000     0.006640000000    -0.244978   
O182     O      0.799640000000     0.934220000000     0.967500000000    -0.246312   
O183     O      0.829170000000     0.861560000000     0.902840000000    -0.246743   
O184     O      0.764480000000     0.883780000000     0.879230000000    -0.245542   
O185     O      0.522870000000     0.781980000000     0.897770000000    -0.239411   
O186     O      0.559790000000     0.832090000000     0.768120000000    -0.235238   
O187     O      0.512040000000     0.732270000000     0.815020000000    -0.240796   
O188     O      0.593400000000     0.798870000000     0.877610000000    -0.244998   
O189     O      0.609150000000     0.823740000000     0.813080000000    -0.240633   
O190     O      0.558990000000     0.748130000000     0.788860000000    -0.246644   
O191     O      0.525310000000     0.817630000000     0.851990000000    -0.246817   
O192     O      0.524690000000     0.784530000000     0.748510000000    -0.244583   
O193     O      0.178580000000     0.562090000000     0.104070000000    -0.243798   
O194     O      0.082070000000     0.559240000000     0.107710000000    -0.240595   
O195     O      0.155590000000     0.597880000000     0.016980000000    -0.241063   
O196     O      0.161180000000     0.601490000000     0.174610000000    -0.244466   
O197     O      0.131760000000     0.618060000000     0.144920000000    -0.238132   
O198     O      0.179080000000     0.633620000000     0.068760000000    -0.245273   
O199     O      0.132700000000     0.532200000000     0.134550000000    -0.2465     
O200     O      0.096400000000     0.544610000000     0.046770000000    -0.241597   
O201     O      0.843220000000     0.445850000000     0.982850000000    -0.24019    
O202     O      0.891860000000     0.396120000000     0.935320000000    -0.234722   
O203     O      0.854760000000     0.407660000000     0.066810000000    -0.240334   
O204     O      0.925520000000     0.463870000000     0.044830000000    -0.244312   
O205     O      0.940450000000     0.451450000000     0.982370000000    -0.240536   
O206     O      0.857700000000     0.374700000000     0.021170000000    -0.247276   
O207     O      0.890730000000     0.478710000000     0.959820000000    -0.246106   
O208     O      0.856280000000     0.407870000000     0.917120000000    -0.24445    
O209     O      0.175520000000     0.054390000000     0.692440000000    -0.245159   
O210     O      0.276320000000     0.121330000000     0.654730000000    -0.240046   
O211     O      0.183430000000     0.126390000000     0.653670000000    -0.243238   
O212     O      0.226440000000     0.065260000000     0.615600000000    -0.239073   
O213     O      0.198020000000     0.082300000000     0.583960000000    -0.24454    
O214     O      0.228200000000     0.151600000000     0.618220000000    -0.245835   
O215     O      0.207860000000     0.087790000000     0.741720000000    -0.243415   
O216     O      0.263530000000     0.144410000000     0.706610000000    -0.240809   
O217     O      0.513830000000     0.230490000000     0.769750000000    -0.243041   
O218     O      0.420350000000     0.235150000000     0.770050000000    -0.239939   
O219     O      0.519950000000     0.302460000000     0.731080000000    -0.245425   
O220     O      0.499390000000     0.273020000000     0.840240000000    -0.244724   
O221     O      0.470860000000     0.290600000000     0.810570000000    -0.238671   
O222     O      0.488710000000     0.267940000000     0.682060000000    -0.243404   
O223     O      0.468360000000     0.203700000000     0.802940000000    -0.245973   
O224     O      0.432930000000     0.212110000000     0.717850000000    -0.240932   
O225     O      0.208480000000     0.713500000000     0.852600000000    -0.246282   
O226     O      0.188600000000     0.731530000000     0.772070000000    -0.235443   
O227     O      0.289620000000     0.787140000000     0.817640000000    -0.241687   
O228     O      0.223540000000     0.802090000000     0.877290000000    -0.244372   
O229     O      0.196180000000     0.789600000000     0.814730000000    -0.24095    
O230     O      0.273400000000     0.816750000000     0.787960000000    -0.246363   
O231     O      0.237470000000     0.749220000000     0.901980000000    -0.23966    
O232     O      0.236290000000     0.747460000000     0.748890000000    -0.244243   
O233     O      0.118810000000     0.938080000000     0.859070000000    -0.239009   
O234     O      0.162490000000     0.895640000000     0.942410000000    -0.240405   
O235     O      0.068980000000     0.896260000000     0.940090000000    -0.240262   
O236     O      0.121520000000     0.940560000000     0.006160000000    -0.24461    
O237     O      0.169120000000     0.951880000000     0.989290000000    -0.234605   
O238     O      0.087210000000     0.869230000000     0.972770000000    -0.246754   
O239     O      0.155390000000     0.971570000000     0.904020000000    -0.246876   
O240     O      0.135170000000     0.883510000000     0.879820000000    -0.245408   
O241     O      0.574200000000     0.416980000000     0.562130000000    -0.238759   
O242     O      0.522990000000     0.401320000000     0.432650000000    -0.235192   
O243     O      0.623740000000     0.457710000000     0.481360000000    -0.240827   
O244     O      0.556880000000     0.469890000000     0.540780000000    -0.245391   
O245     O      0.530690000000     0.458770000000     0.477240000000    -0.240532   
O246     O      0.605640000000     0.484200000000     0.446690000000    -0.246574   
O247     O      0.538510000000     0.382440000000     0.517170000000    -0.246527   
O248     O      0.570440000000     0.412840000000     0.414410000000    -0.244615   
O249     O      0.488140000000     0.640420000000     0.565270000000    -0.246819   
O250     O      0.495590000000     0.563440000000     0.605720000000    -0.24065    
O251     O      0.403840000000     0.568200000000     0.603310000000    -0.24118    
O252     O      0.456060000000     0.607630000000     0.669840000000    -0.244445   
O253     O      0.503690000000     0.620800000000     0.649960000000    -0.235374   
O254     O      0.418810000000     0.536370000000     0.628120000000    -0.246628   
O255     O      0.453630000000     0.605650000000     0.519300000000    -0.239637   
O256     O      0.470000000000     0.552840000000     0.541660000000    -0.244526   
O257     O      0.958830000000     0.117150000000     0.149900000000    -0.241936   
O258     O      0.862670000000     0.115140000000     0.152240000000    -0.240325   
O259     O      0.907590000000     0.078400000000     0.235880000000    -0.240614   
O260     O      0.904900000000     0.075310000000     0.083390000000    -0.243756   
O261     O      0.857610000000     0.062080000000     0.105360000000    -0.235247   
O262     O      0.878900000000     0.042410000000     0.186690000000    -0.247277   
O263     O      0.941390000000     0.146230000000     0.122030000000    -0.246684   
O264     O      0.893810000000     0.131960000000     0.210980000000    -0.243565   
O265     O      0.797640000000     0.291960000000     0.234160000000    -0.24463    
O266     O      0.829740000000     0.223340000000     0.275330000000    -0.240384   
O267     O      0.733590000000     0.221360000000     0.271160000000    -0.243824   
O268     O      0.838650000000     0.283220000000     0.309180000000    -0.240099   
O269     O      0.793540000000     0.264680000000     0.343370000000    -0.24435    
O270     O      0.751450000000     0.195380000000     0.307690000000    -0.246096   
O271     O      0.797760000000     0.259180000000     0.185200000000    -0.242175   
O272     O      0.796960000000     0.204230000000     0.218500000000    -0.24066    
O273     O      0.843090000000     0.888640000000     0.439820000000    -0.243357   
O274     O      0.751650000000     0.896120000000     0.436200000000    -0.239974   
O275     O      0.849890000000     0.963880000000     0.403460000000    -0.245825   
O276     O      0.800250000000     0.949510000000     0.479510000000    -0.23716    
O277     O      0.831240000000     0.934610000000     0.508460000000    -0.243516   
O278     O      0.825330000000     0.928070000000     0.352160000000    -0.242293   
O279     O      0.798510000000     0.864670000000     0.476000000000    -0.246433   
O280     O      0.764880000000     0.873940000000     0.383580000000    -0.241967   
O281     O      0.516490000000     0.792670000000     0.312640000000    -0.243444   
O282     O      0.560010000000     0.732600000000     0.271600000000    -0.238412   
O283     O      0.539860000000     0.754600000000     0.399600000000    -0.24311    
O284     O      0.596290000000     0.809880000000     0.365250000000    -0.241076   
O285     O      0.609310000000     0.787280000000     0.312940000000    -0.239744   
O286     O      0.509760000000     0.719800000000     0.350020000000    -0.245399   
O287     O      0.561070000000     0.818040000000     0.276710000000    -0.246109   
O288     O      0.529810000000     0.748290000000     0.242210000000    -0.244104   


