data_structure

_audit_creation_method RASPA-1.0
_audit_creation_date 2023-5-23
_audit_author_name 'Poobodin Mano'

_cell_length_a    36.0503
_cell_length_b    28.3305
_cell_length_c    29.4414
_cell_angle_alpha 90.0016
_cell_angle_beta  89.9993
_cell_angle_gamma 90
_cell_volume      30069.2

_symmetry_cell_setting          triclinic
_symmetry_space_group_name_Hall 'P 1'
_symmetry_space_group_name_H-M  'P 1'
_symmetry_Int_Tables_number     1

_symmetry_equiv_pos_as_xyz 'x,y,z'

loop_
_atom_site_label
_atom_site_type_symbol
_atom_site_fract_x
_atom_site_fract_y
_atom_site_fract_z
_atom_site_charge
C1       C      0.463360000000     0.063540000000     0.304880000000     0.343861   
C2       C      0.371990000000     0.169230000000     0.244520000000     0.347706   
C3       C      0.432440000000     0.040410000000     0.157650000000     0.346064   
C4       C      0.337710000000     0.019020000000     0.266800000000     0.344717   
C5       C      0.121970000000     0.845860000000     0.412370000000     0.347803   
C6       C      0.213360000000     0.951580000000     0.352120000000     0.34391    
C7       C      0.087700000000     0.996090000000     0.390200000000     0.344545   
C8       C      0.182410000000     0.974650000000     0.499340000000     0.346133   
C9       C      0.306960000000     0.169220000000     0.744520000000     0.347687   
C10      C      0.215580000000     0.063540000000     0.804880000000     0.343895   
C11      C      0.246500000000     0.040410000000     0.657650000000     0.346045   
C12      C      0.341230000000     0.019010000000     0.766790000000     0.344659   
C13      C      0.056960000000     0.845850000000     0.912370000000     0.347723   
C14      C      0.965580000000     0.951570000000     0.852110000000     0.343909   
C15      C      0.996530000000     0.974640000000     0.999340000000     0.346151   
C16      C      0.091240000000     0.996080000000     0.890190000000     0.344454   
C17      C      0.371980000000     0.345850000000     0.744440000000     0.347722   
C18      C      0.463360000000     0.451570000000     0.804700000000     0.343899   
C19      C      0.432410000000     0.474640000000     0.657480000000     0.346054   
C20      C      0.337710000000     0.496080000000     0.766630000000     0.344634   
C21      C      0.121990000000     0.669220000000     0.912300000000     0.347827   
C22      C      0.213360000000     0.563540000000     0.851950000000     0.343959   
C23      C      0.182440000000     0.540410000000     0.999170000000     0.346084   
C24      C      0.087710000000     0.519010000000     0.890020000000     0.344565   
C25      C      0.465580000000     0.563540000000     0.351950000000     0.343852   
C26      C      0.056950000000     0.669230000000     0.412300000000     0.347779   
C27      C      0.996490000000     0.540420000000     0.499170000000     0.346255   
C28      C      0.091220000000     0.519020000000     0.390020000000     0.344601   
C29      C      0.306960000000     0.345860000000     0.244440000000     0.347806   
C30      C      0.215570000000     0.451580000000     0.304700000000     0.343863   
C31      C      0.341230000000     0.496090000000     0.266630000000     0.344671   
C32      C      0.246530000000     0.474650000000     0.157480000000     0.346143   
C33      C      0.119250000000     0.462740000000     0.340990000000     0.0352872  
C34      C      0.156760000000     0.510100000000     0.388290000000     0.0351442  
C35      C      0.188420000000     0.492880000000     0.366570000000     0.0350231  
C36      C      0.150920000000     0.445470000000     0.319310000000     0.0348869  
C37      C      0.400930000000     0.569650000000     0.337330000000     0.0348837  
C38      C      0.438430000000     0.522230000000     0.290080000000     0.0350336  
C39      C      0.406770000000     0.505020000000     0.268350000000     0.0350861  
C40      C      0.369260000000     0.552380000000     0.315650000000     0.0353417  
C41      C      0.221890000000     0.552180000000     0.062890000000     0.035051   
C42      C      0.190640000000     0.479580000000     0.053920000000     0.0349819  
C43      C      0.207090000000     0.462870000000     0.093750000000     0.0350558  
C44      C      0.238340000000     0.535470000000     0.102720000000     0.0349839  
C45      C      0.440600000000     0.535470000000     0.602720000000     0.0349172  
C46      C      0.971850000000     0.462870000000     0.593750000000     0.0350253  
C47      C      0.988290000000     0.479580000000     0.553920000000     0.0350722  
C48      C      0.457050000000     0.552180000000     0.562890000000     0.0350883  
C49      C      0.272170000000     0.505010000000     0.768350000000     0.0350614  
C50      C      0.309680000000     0.552380000000     0.815650000000     0.0352904  
C51      C      0.278010000000     0.569650000000     0.837320000000     0.034899   
C52      C      0.240510000000     0.522230000000     0.790080000000     0.0350748  
C53      C      0.028020000000     0.445470000000     0.819300000000     0.0347536  
C54      C      0.990520000000     0.492880000000     0.866560000000     0.0351516  
C55      C      0.022180000000     0.510090000000     0.888290000000     0.0350672  
C56      C      0.059690000000     0.462740000000     0.840990000000     0.0353587  
C57      C      0.081170000000     0.779760000000     0.952080000000     0.0352678  
C58      C      0.080960000000     0.779750000000     0.871930000000     0.035141   
C59      C      0.097990000000     0.735370000000     0.871910000000     0.0350671  
C60      C      0.097770000000     0.735290000000     0.952060000000     0.035317   
C61      C      0.331170000000     0.235280000000     0.704760000000     0.0353221  
C62      C      0.330950000000     0.235370000000     0.784910000000     0.0351031  
C63      C      0.347980000000     0.279750000000     0.784890000000     0.0350837  
C64      C      0.347770000000     0.279750000000     0.704740000000     0.0352988  
C65      C      0.369260000000     0.962740000000     0.815830000000     0.0353243  
C66      C      0.406770000000     0.010100000000     0.768530000000     0.0353143  
C67      C      0.438430000000     0.992890000000     0.790260000000     0.0348178  
C68      C      0.400930000000     0.945470000000     0.837510000000     0.0348517  
C69      C      0.119260000000     0.052380000000     0.841180000000     0.0352753  
C70      C      0.156770000000     0.005010000000     0.888470000000     0.0352287  
C71      C      0.188430000000     0.022230000000     0.866740000000     0.0350391  
C72      C      0.150930000000     0.069650000000     0.819500000000     0.0348997  
C73      C      0.097970000000     0.779750000000     0.371930000000     0.0350794  
C74      C      0.097770000000     0.779760000000     0.452080000000     0.0353128  
C75      C      0.081160000000     0.735300000000     0.452060000000     0.0353012  
C76      C      0.080950000000     0.735370000000     0.371910000000     0.0350927  
C77      C      0.221850000000     0.962870000000     0.563060000000     0.0350535  
C78      C      0.190600000000     0.035470000000     0.554100000000     0.0350595  
C79      C      0.207050000000     0.052180000000     0.593940000000     0.035037   
C80      C      0.238300000000     0.979580000000     0.602900000000     0.0349168  
C81      C      0.347780000000     0.235290000000     0.204760000000     0.0353042  
C82      C      0.347980000000     0.235380000000     0.284910000000     0.0350846  
C83      C      0.330960000000     0.279750000000     0.284890000000     0.0350774  
C84      C      0.331170000000     0.279760000000     0.204740000000     0.0353214  
C85      C      0.440640000000     0.979590000000     0.102900000000     0.0349156  
C86      C      0.971890000000     0.052180000000     0.093930000000     0.0349663  
C87      C      0.988340000000     0.035460000000     0.054100000000     0.0352191  
C88      C      0.457090000000     0.962870000000     0.063060000000     0.0350628  
C89      C      0.309680000000     0.962740000000     0.315830000000     0.0353107  
C90      C      0.272180000000     0.010100000000     0.268530000000     0.0353796  
C91      C      0.240510000000     0.992890000000     0.290250000000     0.0347844  
C92      C      0.278010000000     0.945470000000     0.337500000000     0.0348644  
C93      C      0.059670000000     0.052380000000     0.341180000000     0.0353593  
C94      C      0.022170000000     0.005010000000     0.388470000000     0.0351511  
C95      C      0.990500000000     0.022230000000     0.366740000000     0.0350955  
C96      C      0.028010000000     0.069650000000     0.319500000000     0.0347847  
C97      C      0.963360000000     0.063530000000     0.304870000000     0.34379    
C98      C      0.871980000000     0.169230000000     0.244520000000     0.34774    
C99      C      0.932440000000     0.040410000000     0.157640000000     0.345971   
C100     C      0.837710000000     0.019020000000     0.266790000000     0.344793   
C101     C      0.621970000000     0.845860000000     0.412380000000     0.347786   
C102     C      0.713360000000     0.951580000000     0.352120000000     0.343967   
C103     C      0.587700000000     0.996090000000     0.390200000000     0.344363   
C104     C      0.682410000000     0.974640000000     0.499340000000     0.346092   
C105     C      0.806960000000     0.169230000000     0.744520000000     0.347745   
C106     C      0.715580000000     0.063540000000     0.804880000000     0.343921   
C107     C      0.746500000000     0.040410000000     0.657650000000     0.346044   
C108     C      0.841230000000     0.019010000000     0.766790000000     0.344813   
C109     C      0.556960000000     0.845860000000     0.912380000000     0.347804   
C110     C      0.465580000000     0.951590000000     0.852130000000     0.343967   
C111     C      0.496530000000     0.974640000000     0.999350000000     0.34609    
C112     C      0.591240000000     0.996090000000     0.890200000000     0.344456   
C113     C      0.871980000000     0.345860000000     0.744440000000     0.347781   
C114     C      0.963370000000     0.451580000000     0.804690000000     0.343911   
C115     C      0.932410000000     0.474640000000     0.657470000000     0.346086   
C116     C      0.837710000000     0.496090000000     0.766630000000     0.344578   
C117     C      0.621990000000     0.669230000000     0.912300000000     0.347767   
C118     C      0.713360000000     0.563540000000     0.851950000000     0.344024   
C119     C      0.682450000000     0.540420000000     0.999170000000     0.34613    
C120     C      0.587710000000     0.519010000000     0.890020000000     0.344567   
C121     C      0.965580000000     0.563540000000     0.351940000000     0.34384    
C122     C      0.556950000000     0.669230000000     0.412300000000     0.347802   
C123     C      0.496500000000     0.540410000000     0.499180000000     0.346035   
C124     C      0.591230000000     0.519010000000     0.390030000000     0.344579   
C125     C      0.806960000000     0.345860000000     0.244440000000     0.34781    
C126     C      0.715580000000     0.451570000000     0.304700000000     0.343871   
C127     C      0.841230000000     0.496090000000     0.266620000000     0.344623   
C128     C      0.746530000000     0.474640000000     0.157470000000     0.346075   
C129     C      0.619250000000     0.462740000000     0.340990000000     0.0353323  
C130     C      0.656760000000     0.510090000000     0.388290000000     0.0351783  
C131     C      0.688420000000     0.492880000000     0.366570000000     0.0349691  
C132     C      0.650920000000     0.445470000000     0.319310000000     0.0348812  
C133     C      0.900920000000     0.569650000000     0.337320000000     0.0348526  
C134     C      0.938430000000     0.522240000000     0.290070000000     0.0349856  
C135     C      0.906760000000     0.505020000000     0.268350000000     0.0351965  
C136     C      0.869260000000     0.552380000000     0.315640000000     0.0353637  
C137     C      0.721890000000     0.552180000000     0.062890000000     0.0350784  
C138     C      0.690640000000     0.479580000000     0.053920000000     0.0349569  
C139     C      0.707090000000     0.462870000000     0.093750000000     0.0350651  
C140     C      0.738340000000     0.535470000000     0.102720000000     0.0349825  
C141     C      0.940600000000     0.535470000000     0.602720000000     0.0350116  
C142     C      0.471850000000     0.462860000000     0.593760000000     0.0350335  
C143     C      0.488300000000     0.479580000000     0.553920000000     0.03501    
C144     C      0.957040000000     0.552180000000     0.562880000000     0.0350485  
C145     C      0.772170000000     0.505020000000     0.768350000000     0.0351639  
C146     C      0.809680000000     0.552380000000     0.815650000000     0.035287   
C147     C      0.778010000000     0.569650000000     0.837320000000     0.0349204  
C148     C      0.740510000000     0.522230000000     0.790070000000     0.0349609  
C149     C      0.528020000000     0.445470000000     0.819310000000     0.0348741  
C150     C      0.490520000000     0.492880000000     0.866570000000     0.0349684  
C151     C      0.522180000000     0.510090000000     0.888300000000     0.0351805  
C152     C      0.559680000000     0.462730000000     0.840990000000     0.0352987  
C153     C      0.581170000000     0.779760000000     0.952090000000     0.0352737  
C154     C      0.580960000000     0.779750000000     0.871930000000     0.0350785  
C155     C      0.597990000000     0.735370000000     0.871910000000     0.0351083  
C156     C      0.597780000000     0.735290000000     0.952070000000     0.0352891  
C157     C      0.831170000000     0.235290000000     0.704760000000     0.0353561  
C158     C      0.830960000000     0.235370000000     0.784900000000     0.0351443  
C159     C      0.847980000000     0.279750000000     0.784880000000     0.0351085  
C160     C      0.847770000000     0.279760000000     0.704730000000     0.0352338  
C161     C      0.869260000000     0.962740000000     0.815820000000     0.0354092  
C162     C      0.906760000000     0.010100000000     0.768520000000     0.0353083  
C163     C      0.938430000000     0.992880000000     0.790250000000     0.0348583  
C164     C      0.900930000000     0.945460000000     0.837500000000     0.0347995  
C165     C      0.619270000000     0.052380000000     0.841180000000     0.0353283  
C166     C      0.656770000000     0.005010000000     0.888470000000     0.0352332  
C167     C      0.688440000000     0.022230000000     0.866740000000     0.0350103  
C168     C      0.650930000000     0.069650000000     0.819510000000     0.034893   
C169     C      0.597970000000     0.779750000000     0.371940000000     0.0351682  
C170     C      0.597770000000     0.779760000000     0.452080000000     0.0353635  
C171     C      0.581160000000     0.735290000000     0.452070000000     0.0352341  
C172     C      0.580950000000     0.735370000000     0.371910000000     0.0350325  
C173     C      0.721850000000     0.962870000000     0.563060000000     0.0350554  
C174     C      0.690600000000     0.035470000000     0.554110000000     0.0350567  
C175     C      0.707050000000     0.052180000000     0.593940000000     0.0350347  
C176     C      0.738300000000     0.979580000000     0.602900000000     0.0349188  
C177     C      0.847780000000     0.235290000000     0.204750000000     0.0352914  
C178     C      0.847990000000     0.235370000000     0.284900000000     0.0351524  
C179     C      0.830960000000     0.279750000000     0.284880000000     0.0351122  
C180     C      0.831170000000     0.279760000000     0.204730000000     0.0352761  
C181     C      0.940640000000     0.979580000000     0.102890000000     0.0349101  
C182     C      0.471900000000     0.052180000000     0.093940000000     0.0350381  
C183     C      0.488350000000     0.035470000000     0.054110000000     0.0350439  
C184     C      0.957090000000     0.962870000000     0.063060000000     0.0350739  
C185     C      0.809680000000     0.962740000000     0.315830000000     0.035336   
C186     C      0.772170000000     0.010100000000     0.268530000000     0.0352513  
C187     C      0.740510000000     0.992880000000     0.290250000000     0.0348683  
C188     C      0.778010000000     0.945470000000     0.337500000000     0.0348624  
C189     C      0.559670000000     0.052380000000     0.341180000000     0.0353314  
C190     C      0.522170000000     0.005010000000     0.388470000000     0.0352434  
C191     C      0.490510000000     0.022230000000     0.366750000000     0.034985   
C192     C      0.528010000000     0.069660000000     0.319510000000     0.0348629  
Cd1      Cd     0.401870000000     0.074430000000     0.242600000000     0.512236   
Cd2      Cd     0.151860000000     0.940660000000     0.414380000000     0.512223   
Cd3      Cd     0.277070000000     0.074420000000     0.742590000000     0.512215   
Cd4      Cd     0.027080000000     0.940660000000     0.914370000000     0.512162   
Cd5      Cd     0.401860000000     0.440660000000     0.742450000000     0.512252   
Cd6      Cd     0.151870000000     0.574420000000     0.914230000000     0.512238   
Cd7      Cd     0.027060000000     0.574430000000     0.414220000000     0.512194   
Cd8      Cd     0.277080000000     0.440660000000     0.242440000000     0.512267   
Cd9      Cd     0.901870000000     0.074420000000     0.242590000000     0.512237   
Cd10     Cd     0.651860000000     0.940660000000     0.414380000000     0.512229   
Cd11     Cd     0.777070000000     0.074420000000     0.742590000000     0.512255   
Cd12     Cd     0.527080000000     0.940660000000     0.914380000000     0.512212   
Cd13     Cd     0.901860000000     0.440660000000     0.742440000000     0.512253   
Cd14     Cd     0.651870000000     0.574430000000     0.914230000000     0.512259   
Cd15     Cd     0.527070000000     0.574430000000     0.414230000000     0.512257   
Cd16     Cd     0.777080000000     0.440660000000     0.242440000000     0.51225    
H1       H      0.092440000000     0.450150000000     0.329480000000     0.0511739  
H2       H      0.160360000000     0.535930000000     0.415110000000     0.0502865  
H3       H      0.215190000000     0.506130000000     0.377510000000     0.0510913  
H4       H      0.147280000000     0.420300000000     0.291910000000     0.0504864  
H5       H      0.397290000000     0.594820000000     0.364720000000     0.0504909  
H6       H      0.465200000000     0.508980000000     0.279140000000     0.0510882  
H7       H      0.410370000000     0.479180000000     0.241540000000     0.0503039  
H8       H      0.342450000000     0.564970000000     0.327160000000     0.0511681  
H9       H      0.228600000000     0.587720000000     0.051930000000     0.0511374  
H10      H      0.172010000000     0.456250000000     0.035690000000     0.0502164  
H11      H      0.200380000000     0.427330000000     0.104710000000     0.051132   
H12      H      0.256970000000     0.558800000000     0.120950000000     0.050216   
H13      H      0.421970000000     0.558790000000     0.620950000000     0.0502411  
H14      H      0.978560000000     0.427330000000     0.604710000000     0.0511593  
H15      H      0.006930000000     0.456260000000     0.535690000000     0.0501492  
H16      H      0.450340000000     0.587720000000     0.551940000000     0.0511229  
H17      H      0.268570000000     0.479170000000     0.741540000000     0.0503086  
H18      H      0.336490000000     0.564960000000     0.827160000000     0.0511885  
H19      H      0.281650000000     0.594820000000     0.864720000000     0.0504955  
H20      H      0.213740000000     0.508980000000     0.779140000000     0.0510828  
H21      H      0.031660000000     0.420310000000     0.791910000000     0.0504996  
H22      H      0.463750000000     0.506120000000     0.877510000000     0.0511131  
H23      H      0.018570000000     0.535930000000     0.915110000000     0.050279   
H24      H      0.086490000000     0.450150000000     0.829470000000     0.0511482  
H25      H      0.075130000000     0.795960000000     0.984630000000     0.0511968  
H26      H      0.074840000000     0.796090000000     0.839480000000     0.050046   
H27      H      0.104120000000     0.719050000000     0.839450000000     0.0500812  
H28      H      0.103800000000     0.719050000000     0.984600000000     0.0511956  
H29      H      0.325140000000     0.219050000000     0.672220000000     0.0511987  
H30      H      0.324830000000     0.219050000000     0.817370000000     0.0500807  
H31      H      0.354110000000     0.296100000000     0.817330000000     0.0500849  
H32      H      0.353800000000     0.295960000000     0.672190000000     0.0512027  
H33      H      0.342450000000     0.950150000000     0.827340000000     0.051157   
H34      H      0.410370000000     0.035930000000     0.741710000000     0.050257   
H35      H      0.465200000000     0.006140000000     0.779320000000     0.0511961  
H36      H      0.397290000000     0.920310000000     0.864900000000     0.0504985  
H37      H      0.092460000000     0.064970000000     0.829670000000     0.0511785  
H38      H      0.160380000000     0.979170000000     0.915280000000     0.0502221  
H39      H      0.215210000000     0.008970000000     0.877680000000     0.0511114  
H40      H      0.147290000000     0.094820000000     0.792110000000     0.0504916  
H41      H      0.104100000000     0.796100000000     0.339480000000     0.0500737  
H42      H      0.103790000000     0.795970000000     0.484630000000     0.0511937  
H43      H      0.075130000000     0.719060000000     0.484600000000     0.0511958  
H44      H      0.074820000000     0.719060000000     0.339450000000     0.0500648  
H45      H      0.228560000000     0.927340000000     0.552100000000     0.0511245  
H46      H      0.171970000000     0.058800000000     0.535880000000     0.0502118  
H47      H      0.200340000000     0.087710000000     0.604900000000     0.05114    
H48      H      0.256930000000     0.956250000000     0.621120000000     0.0502117  
H49      H      0.353810000000     0.219050000000     0.172230000000     0.0512048  
H50      H      0.354110000000     0.219060000000     0.317370000000     0.0500834  
H51      H      0.324830000000     0.296100000000     0.317330000000     0.0500865  
H52      H      0.325140000000     0.295960000000     0.172190000000     0.0511984  
H53      H      0.422010000000     0.956260000000     0.121120000000     0.0502104  
H54      H      0.978600000000     0.087710000000     0.104890000000     0.0511776  
H55      H      0.006970000000     0.058790000000     0.035880000000     0.0501239  
H56      H      0.450380000000     0.927340000000     0.052100000000     0.0511248  
H57      H      0.336490000000     0.950150000000     0.327340000000     0.051161   
H58      H      0.268570000000     0.035940000000     0.241710000000     0.0502373  
H59      H      0.213740000000     0.006140000000     0.279310000000     0.0512025  
H60      H      0.281650000000     0.920300000000     0.364900000000     0.0504911  
H61      H      0.086480000000     0.064970000000     0.329670000000     0.0511682  
H62      H      0.018560000000     0.979170000000     0.415280000000     0.0502196  
H63      H      0.463730000000     0.008980000000     0.377690000000     0.051123   
H64      H      0.031650000000     0.094820000000     0.292110000000     0.0505028  
H65      H      0.592440000000     0.450150000000     0.329480000000     0.05117    
H66      H      0.660360000000     0.535930000000     0.415110000000     0.050279   
H67      H      0.715190000000     0.506130000000     0.377510000000     0.0511097  
H68      H      0.647280000000     0.420300000000     0.291910000000     0.050498   
H69      H      0.897280000000     0.594830000000     0.364710000000     0.0505044  
H70      H      0.965200000000     0.508990000000     0.279130000000     0.0511172  
H71      H      0.910370000000     0.479180000000     0.241530000000     0.050278   
H72      H      0.842450000000     0.564970000000     0.327160000000     0.0511635  
H73      H      0.728600000000     0.587720000000     0.051930000000     0.0511276  
H74      H      0.672010000000     0.456250000000     0.035690000000     0.050228   
H75      H      0.700380000000     0.427330000000     0.104710000000     0.0511347  
H76      H      0.756970000000     0.558800000000     0.120950000000     0.0502177  
H77      H      0.921960000000     0.558800000000     0.620940000000     0.0502139  
H78      H      0.478560000000     0.427330000000     0.604710000000     0.0511378  
H79      H      0.506930000000     0.456250000000     0.535700000000     0.0502073  
H80      H      0.950340000000     0.587720000000     0.551930000000     0.0511464  
H81      H      0.768570000000     0.479180000000     0.741530000000     0.0502896  
H82      H      0.836490000000     0.564960000000     0.827160000000     0.051186   
H83      H      0.781650000000     0.594820000000     0.864720000000     0.0504911  
H84      H      0.713740000000     0.508980000000     0.779140000000     0.0511165  
H85      H      0.531660000000     0.420300000000     0.791920000000     0.050497   
H86      H      0.963750000000     0.506130000000     0.877510000000     0.0510725  
H87      H      0.518570000000     0.535930000000     0.915120000000     0.0502743  
H88      H      0.586490000000     0.450150000000     0.829480000000     0.0511787  
H89      H      0.575140000000     0.795970000000     0.984630000000     0.0512146  
H90      H      0.574840000000     0.796100000000     0.839490000000     0.0500805  
H91      H      0.604110000000     0.719050000000     0.839450000000     0.0500746  
H92      H      0.603810000000     0.719060000000     0.984600000000     0.0512054  
H93      H      0.825140000000     0.219050000000     0.672220000000     0.0511946  
H94      H      0.824830000000     0.219060000000     0.817370000000     0.0500664  
H95      H      0.854110000000     0.296100000000     0.817330000000     0.0500826  
H96      H      0.853800000000     0.295960000000     0.672190000000     0.0512221  
H97      H      0.842450000000     0.950150000000     0.827330000000     0.0511341  
H98      H      0.910370000000     0.035930000000     0.741710000000     0.05026    
H99      H      0.965200000000     0.006130000000     0.779310000000     0.0511974  
H100     H      0.897290000000     0.920300000000     0.864890000000     0.0505147  
H101     H      0.592460000000     0.064970000000     0.829670000000     0.0511836  
H102     H      0.660380000000     0.979170000000     0.915280000000     0.0502205  
H103     H      0.715210000000     0.008980000000     0.877680000000     0.0511163  
H104     H      0.647290000000     0.094820000000     0.792110000000     0.050499   
H105     H      0.604100000000     0.796100000000     0.339490000000     0.0500598  
H106     H      0.603800000000     0.795970000000     0.484630000000     0.0511865  
H107     H      0.575130000000     0.719060000000     0.484600000000     0.0512176  
H108     H      0.574820000000     0.719060000000     0.339460000000     0.0500927  
H109     H      0.728560000000     0.927340000000     0.552100000000     0.0511241  
H110     H      0.671970000000     0.058800000000     0.535880000000     0.050221   
H111     H      0.700340000000     0.087710000000     0.604900000000     0.0511439  
H112     H      0.756930000000     0.956250000000     0.621120000000     0.0502133  
H113     H      0.853800000000     0.219050000000     0.172220000000     0.0512116  
H114     H      0.854110000000     0.219060000000     0.317370000000     0.0500623  
H115     H      0.824830000000     0.296100000000     0.317330000000     0.050079   
H116     H      0.825140000000     0.295960000000     0.172190000000     0.0512128  
H117     H      0.922000000000     0.956250000000     0.121110000000     0.0502158  
H118     H      0.478610000000     0.087710000000     0.104900000000     0.0511452  
H119     H      0.506980000000     0.058800000000     0.035890000000     0.0502167  
H120     H      0.950380000000     0.927330000000     0.052100000000     0.0511324  
H121     H      0.836490000000     0.950150000000     0.327340000000     0.051158   
H122     H      0.768570000000     0.035930000000     0.241710000000     0.0502759  
H123     H      0.713740000000     0.006130000000     0.279310000000     0.0511818  
H124     H      0.781650000000     0.920300000000     0.364900000000     0.0504931  
H125     H      0.586480000000     0.064970000000     0.329680000000     0.0511782  
H126     H      0.518560000000     0.979170000000     0.415290000000     0.0502188  
H127     H      0.963730000000     0.008970000000     0.377680000000     0.051106   
H128     H      0.531650000000     0.094830000000     0.292120000000     0.0505082  
N1       N      0.122220000000     0.496610000000     0.373990000000    -0.160763   
N2       N      0.185270000000     0.462290000000     0.330760000000    -0.160906   
N3       N      0.435270000000     0.552830000000     0.325880000000    -0.16085    
N4       N      0.372220000000     0.518510000000     0.282660000000    -0.160788   
N5       N      0.198110000000     0.524180000000     0.038570000000    -0.161202   
N6       N      0.230870000000     0.490870000000     0.118070000000    -0.161215   
N7       N      0.448070000000     0.490860000000     0.618080000000    -0.161203   
N8       N      0.980830000000     0.524190000000     0.538560000000    -0.161282   
N9       N      0.306720000000     0.518500000000     0.782660000000    -0.160763   
N10      N      0.243660000000     0.552830000000     0.825880000000    -0.160906   
N11      N      0.993670000000     0.462290000000     0.830760000000    -0.160857   
N12      N      0.056720000000     0.496600000000     0.873990000000    -0.160812   
N13      N      0.072740000000     0.801880000000     0.912040000000    -0.161366   
N14      N      0.106200000000     0.713200000000     0.912010000000    -0.161313   
N15      N      0.322740000000     0.213200000000     0.744810000000    -0.161316   
N16      N      0.356200000000     0.301880000000     0.744770000000    -0.161351   
N17      N      0.372230000000     0.996600000000     0.782830000000    -0.160838   
N18      N      0.435280000000     0.962280000000     0.826060000000    -0.160871   
N19      N      0.122230000000     0.018500000000     0.874170000000    -0.160755   
N20      N      0.185280000000     0.052830000000     0.830940000000    -0.160908   
N21      N      0.106190000000     0.801890000000     0.412050000000    -0.161365   
N22      N      0.072730000000     0.713210000000     0.412010000000    -0.161333   
N23      N      0.198070000000     0.990870000000     0.538740000000    -0.161288   
N24      N      0.230830000000     0.024180000000     0.618250000000    -0.161163   
N25      N      0.356200000000     0.213210000000     0.244810000000    -0.161298   
N26      N      0.322740000000     0.301880000000     0.244770000000    -0.161331   
N27      N      0.448110000000     0.024190000000     0.118260000000    -0.161204   
N28      N      0.980870000000     0.990870000000     0.038740000000    -0.161306   
N29      N      0.306720000000     0.996610000000     0.282830000000    -0.160908   
N30      N      0.243660000000     0.962280000000     0.326050000000    -0.160857   
N31      N      0.056710000000     0.018510000000     0.374170000000    -0.160769   
N32      N      0.993660000000     0.052830000000     0.330940000000    -0.16083    
N33      N      0.622220000000     0.496600000000     0.373990000000    -0.160809   
N34      N      0.685270000000     0.462280000000     0.330760000000    -0.160848   
N35      N      0.935270000000     0.552840000000     0.325870000000    -0.160831   
N36      N      0.872220000000     0.518510000000     0.282650000000    -0.160813   
N37      N      0.698110000000     0.524190000000     0.038570000000    -0.161228   
N38      N      0.730870000000     0.490870000000     0.118070000000    -0.161225   
N39      N      0.948070000000     0.490870000000     0.618070000000    -0.161224   
N40      N      0.480830000000     0.524180000000     0.538570000000    -0.16124    
N41      N      0.806710000000     0.518510000000     0.782660000000    -0.160745   
N42      N      0.743660000000     0.552840000000     0.825880000000    -0.160901   
N43      N      0.493670000000     0.462280000000     0.830760000000    -0.160848   
N44      N      0.556720000000     0.496600000000     0.873990000000    -0.160805   
N45      N      0.572740000000     0.801880000000     0.912050000000    -0.161314   
N46      N      0.606200000000     0.713200000000     0.912010000000    -0.161332   
N47      N      0.822740000000     0.213200000000     0.744810000000    -0.16138    
N48      N      0.856200000000     0.301880000000     0.744770000000    -0.161317   
N49      N      0.872220000000     0.996600000000     0.782830000000    -0.160922   
N50      N      0.935280000000     0.962280000000     0.826050000000    -0.160865   
N51      N      0.622230000000     0.018510000000     0.874170000000    -0.160754   
N52      N      0.685280000000     0.052840000000     0.830950000000    -0.160898   
N53      N      0.606190000000     0.801880000000     0.412050000000    -0.161365   
N54      N      0.572730000000     0.713200000000     0.412010000000    -0.161332   
N55      N      0.698070000000     0.990870000000     0.538750000000    -0.161238   
N56      N      0.730830000000     0.024180000000     0.618250000000    -0.161161   
N57      N      0.856200000000     0.213200000000     0.244810000000    -0.161364   
N58      N      0.822740000000     0.301880000000     0.244770000000    -0.161329   
N59      N      0.948110000000     0.024180000000     0.118250000000    -0.161166   
N60      N      0.480870000000     0.990870000000     0.038750000000    -0.161271   
N61      N      0.806720000000     0.996600000000     0.282830000000    -0.160863   
N62      N      0.743660000000     0.962280000000     0.326050000000    -0.160886   
N63      N      0.556710000000     0.018510000000     0.374170000000    -0.160745   
N64      N      0.493660000000     0.052840000000     0.330950000000    -0.160866   
O1       O      0.381150000000     0.148000000000     0.280730000000    -0.246243   
O2       O      0.369760000000     0.009910000000     0.282140000000    -0.235985   
O3       O      0.465750000000     0.089100000000     0.269710000000    -0.243603   
O4       O      0.439250000000     0.081240000000     0.172940000000    -0.24059    
O5       O      0.410710000000     0.015360000000     0.181380000000    -0.246008   
O6       O      0.431900000000     0.045250000000     0.312290000000    -0.237802   
O7       O      0.377650000000     0.146910000000     0.207920000000    -0.242523   
O8       O      0.335750000000     0.052600000000     0.238410000000    -0.243965   
O9       O      0.215740000000     0.926010000000     0.387290000000    -0.243618   
O10      O      0.160680000000     0.999700000000     0.475620000000    -0.246125   
O11      O      0.131140000000     0.867120000000     0.376190000000    -0.246327   
O12      O      0.119750000000     0.005190000000     0.374850000000    -0.23589    
O13      O      0.085740000000     0.962500000000     0.418570000000    -0.243989   
O14      O      0.127640000000     0.868140000000     0.449000000000    -0.242491   
O15      O      0.181910000000     0.969870000000     0.344700000000    -0.237894   
O16      O      0.189210000000     0.933820000000     0.484050000000    -0.240645   
O17      O      0.213190000000     0.089100000000     0.769700000000    -0.243558   
O18      O      0.309180000000     0.009900000000     0.782140000000    -0.235948   
O19      O      0.297790000000     0.148000000000     0.780730000000    -0.246239   
O20      O      0.239690000000     0.081240000000     0.672940000000    -0.240598   
O21      O      0.268230000000     0.015360000000     0.681370000000    -0.246047   
O22      O      0.301290000000     0.146910000000     0.707910000000    -0.242478   
O23      O      0.247030000000     0.045240000000     0.812280000000    -0.237863   
O24      O      0.343190000000     0.052590000000     0.738410000000    -0.244001   
O25      O      0.963190000000     0.926010000000     0.887290000000    -0.243553   
O26      O      0.059180000000     0.005190000000     0.874850000000    -0.235834   
O27      O      0.047800000000     0.867120000000     0.876190000000    -0.246318   
O28      O      0.989720000000     0.933820000000     0.984050000000    -0.240636   
O29      O      0.018260000000     0.999700000000     0.975610000000    -0.246105   
O30      O      0.051290000000     0.868140000000     0.949000000000    -0.242455   
O31      O      0.997030000000     0.969860000000     0.844700000000    -0.237882   
O32      O      0.093200000000     0.962500000000     0.918570000000    -0.243961   
O33      O      0.431910000000     0.469850000000     0.812120000000    -0.23791    
O34      O      0.335750000000     0.462490000000     0.738250000000    -0.243968   
O35      O      0.377650000000     0.368140000000     0.707820000000    -0.242481   
O36      O      0.439220000000     0.433810000000     0.672770000000    -0.240573   
O37      O      0.410690000000     0.499700000000     0.681210000000    -0.246051   
O38      O      0.381140000000     0.367120000000     0.780630000000    -0.246242   
O39      O      0.465750000000     0.426010000000     0.769520000000    -0.243577   
O40      O      0.369760000000     0.505190000000     0.781970000000    -0.235996   
O41      O      0.181910000000     0.545240000000     0.844540000000    -0.237879   
O42      O      0.085760000000     0.552590000000     0.918410000000    -0.243959   
O43      O      0.131150000000     0.648000000000     0.876100000000    -0.246361   
O44      O      0.189250000000     0.581240000000     0.983890000000    -0.240623   
O45      O      0.160710000000     0.515360000000     0.975450000000    -0.246084   
O46      O      0.127650000000     0.646910000000     0.948910000000    -0.242527   
O47      O      0.215750000000     0.589100000000     0.887120000000    -0.243643   
O48      O      0.119770000000     0.509910000000     0.874680000000    -0.235917   
O49      O      0.047790000000     0.648000000000     0.376090000000    -0.246283   
O50      O      0.093180000000     0.552600000000     0.418410000000    -0.243946   
O51      O      0.497030000000     0.545250000000     0.344550000000    -0.237889   
O52      O      0.989690000000     0.581240000000     0.483890000000    -0.240693   
O53      O      0.018230000000     0.515370000000     0.475440000000    -0.246087   
O54      O      0.963190000000     0.589100000000     0.387120000000    -0.243551   
O55      O      0.051280000000     0.646920000000     0.448900000000    -0.242557   
O56      O      0.059170000000     0.509910000000     0.374680000000    -0.236      
O57      O      0.247030000000     0.469860000000     0.312110000000    -0.237825   
O58      O      0.268250000000     0.499700000000     0.181210000000    -0.246105   
O59      O      0.301300000000     0.368140000000     0.207820000000    -0.242555   
O60      O      0.309180000000     0.505190000000     0.281970000000    -0.236007   
O61      O      0.343190000000     0.462510000000     0.238240000000    -0.243969   
O62      O      0.297800000000     0.367120000000     0.280630000000    -0.246298   
O63      O      0.213190000000     0.426020000000     0.269520000000    -0.243577   
O64      O      0.239730000000     0.433820000000     0.172760000000    -0.240646   
O65      O      0.881150000000     0.148000000000     0.280720000000    -0.246263   
O66      O      0.869760000000     0.009910000000     0.282140000000    -0.235983   
O67      O      0.965750000000     0.089100000000     0.269700000000    -0.24353    
O68      O      0.939240000000     0.081240000000     0.172930000000    -0.240579   
O69      O      0.910700000000     0.015360000000     0.181370000000    -0.245942   
O70      O      0.931900000000     0.045240000000     0.312280000000    -0.237779   
O71      O      0.877650000000     0.146910000000     0.207910000000    -0.24244    
O72      O      0.835750000000     0.052590000000     0.238410000000    -0.244073   
O73      O      0.715740000000     0.926010000000     0.387290000000    -0.24363    
O74      O      0.660680000000     0.999700000000     0.475620000000    -0.246072   
O75      O      0.631130000000     0.867120000000     0.376190000000    -0.246283   
O76      O      0.619760000000     0.005190000000     0.374860000000    -0.235802   
O77      O      0.585740000000     0.962500000000     0.418580000000    -0.243888   
O78      O      0.627640000000     0.868140000000     0.449000000000    -0.242543   
O79      O      0.681910000000     0.969860000000     0.344700000000    -0.237938   
O80      O      0.689210000000     0.933820000000     0.484050000000    -0.24069    
O81      O      0.713190000000     0.089100000000     0.769700000000    -0.24356    
O82      O      0.809180000000     0.009910000000     0.782130000000    -0.236029   
O83      O      0.797790000000     0.148000000000     0.780720000000    -0.246267   
O84      O      0.739690000000     0.081240000000     0.672940000000    -0.240598   
O85      O      0.768230000000     0.015360000000     0.681370000000    -0.246045   
O86      O      0.801290000000     0.146910000000     0.707910000000    -0.242451   
O87      O      0.747030000000     0.045250000000     0.812280000000    -0.237892   
O88      O      0.843190000000     0.052590000000     0.738410000000    -0.244028   
O89      O      0.463190000000     0.926020000000     0.887300000000    -0.243619   
O90      O      0.559190000000     0.005190000000     0.874850000000    -0.235861   
O91      O      0.547800000000     0.867120000000     0.876190000000    -0.246294   
O92      O      0.489730000000     0.933820000000     0.984060000000    -0.240678   
O93      O      0.518260000000     0.999700000000     0.975620000000    -0.246038   
O94      O      0.551300000000     0.868140000000     0.949000000000    -0.242559   
O95      O      0.497030000000     0.969870000000     0.844710000000    -0.237949   
O96      O      0.593200000000     0.962500000000     0.918580000000    -0.243915   
O97      O      0.931910000000     0.469860000000     0.812110000000    -0.237824   
O98      O      0.835740000000     0.462500000000     0.738250000000    -0.243936   
O99      O      0.877650000000     0.368140000000     0.707820000000    -0.242533   
O100     O      0.939210000000     0.433820000000     0.672760000000    -0.240653   
O101     O      0.910680000000     0.499700000000     0.681200000000    -0.246007   
O102     O      0.881140000000     0.367120000000     0.780630000000    -0.246278   
O103     O      0.965750000000     0.426020000000     0.769520000000    -0.243613   
O104     O      0.869760000000     0.505190000000     0.781970000000    -0.235992   
O105     O      0.681910000000     0.545250000000     0.844540000000    -0.237916   
O106     O      0.585760000000     0.552590000000     0.918410000000    -0.243946   
O107     O      0.631150000000     0.648000000000     0.876100000000    -0.246316   
O108     O      0.689240000000     0.581240000000     0.983890000000    -0.240726   
O109     O      0.660710000000     0.515360000000     0.975450000000    -0.245995   
O110     O      0.627650000000     0.646910000000     0.948910000000    -0.242475   
O111     O      0.715750000000     0.589100000000     0.887120000000    -0.243661   
O112     O      0.619770000000     0.509910000000     0.874680000000    -0.235903   
O113     O      0.547790000000     0.648000000000     0.376100000000    -0.246324   
O114     O      0.593180000000     0.552590000000     0.418410000000    -0.243997   
O115     O      0.997030000000     0.545250000000     0.344530000000    -0.23784    
O116     O      0.489690000000     0.581240000000     0.483890000000    -0.240586   
O117     O      0.518230000000     0.515360000000     0.475450000000    -0.246022   
O118     O      0.463190000000     0.589100000000     0.387130000000    -0.243561   
O119     O      0.551290000000     0.646910000000     0.448910000000    -0.242494   
O120     O      0.559170000000     0.509910000000     0.374680000000    -0.235885   
O121     O      0.747030000000     0.469860000000     0.312110000000    -0.237877   
O122     O      0.768250000000     0.499700000000     0.181210000000    -0.246024   
O123     O      0.801300000000     0.368140000000     0.207820000000    -0.242556   
O124     O      0.809180000000     0.505190000000     0.281970000000    -0.235972   
O125     O      0.843190000000     0.462500000000     0.238240000000    -0.24396    
O126     O      0.797800000000     0.367120000000     0.280630000000    -0.246296   
O127     O      0.713190000000     0.426010000000     0.269520000000    -0.243567   
O128     O      0.739720000000     0.433820000000     0.172760000000    -0.24064    


