data_structure

_audit_creation_method RASPA-1.0
_audit_creation_date 2023-5-23
_audit_author_name 'Poobodin Mano'

_cell_length_a    33.0716
_cell_length_b    33.4861
_cell_length_c    30.2156
_cell_angle_alpha 90.0035
_cell_angle_beta  89.9969
_cell_angle_gamma 102.957
_cell_volume      32609.9

_symmetry_cell_setting          triclinic
_symmetry_space_group_name_Hall 'P 1'
_symmetry_space_group_name_H-M  'P 1'
_symmetry_Int_Tables_number     1

_symmetry_equiv_pos_as_xyz 'x,y,z'

loop_
_atom_site_label
_atom_site_type_symbol
_atom_site_fract_x
_atom_site_fract_y
_atom_site_fract_z
_atom_site_charge
C1       C      0.245190000000     0.299770000000     0.465250000000     0.346726   
C2       C      0.192870000000     0.360710000000     0.337550000000     0.34393    
C3       C      0.116230000000     0.303340000000     0.462710000000     0.344765   
C4       C      0.245020000000     0.429750000000     0.464270000000     0.344433   
C5       C      0.346430000000     0.202350000000     0.527170000000     0.34664    
C6       C      0.399070000000     0.141690000000     0.654880000000     0.343905   
C7       C      0.346710000000     0.072400000000     0.528290000000     0.344363   
C8       C      0.475430000000     0.198920000000     0.529570000000     0.344805   
C9       C      0.347050000000     0.202900000000     0.965250000000     0.34672    
C10      C      0.399370000000     0.141950000000     0.837540000000     0.343937   
C11      C      0.476010000000     0.199320000000     0.962710000000     0.344897   
C12      C      0.347220000000     0.072910000000     0.964270000000     0.344462   
C13      C      0.193170000000     0.360990000000     0.154880000000     0.343991   
C14      C      0.245810000000     0.300320000000     0.027170000000     0.346705   
C15      C      0.116810000000     0.303760000000     0.029580000000     0.344906   
C16      C      0.245520000000     0.430270000000     0.028290000000     0.344496   
C17      C      0.533480000000     0.212450000000     0.012370000000     0.0350765  
C18      C      0.024270000000     0.263860000000     0.962520000000     0.0345093  
C19      C      0.059360000000     0.290610000000     0.979880000000     0.0350805  
C20      C      0.068580000000     0.239210000000     0.029730000000     0.0345585  
C21      C      0.279810000000     0.031970000000     0.978520000000     0.0345942  
C22      C      0.338780000000     0.507100000000     0.997710000000     0.0351167  
C23      C      0.312930000000     0.471230000000     0.014080000000     0.034558   
C24      C      0.253960000000     0.496100000000     0.994890000000     0.0351204  
C25      C      0.301720000000     0.247190000000     0.951630000000     0.0355023  
C26      C      0.317040000000     0.231640000000     0.025160000000     0.0353844  
C27      C      0.291180000000     0.256070000000     0.040790000000     0.0355139  
C28      C      0.275860000000     0.271620000000     0.967260000000     0.0353516  
C29      C      0.373490000000     0.159410000000     0.769180000000     0.0350655  
C30      C      0.424460000000     0.120090000000     0.769440000000     0.0350723  
C31      C      0.424380000000     0.120020000000     0.722960000000     0.0350744  
C32      C      0.373410000000     0.159340000000     0.723280000000     0.0350484  
C33      C      0.167780000000     0.382580000000     0.269450000000     0.0350646  
C34      C      0.218750000000     0.343260000000     0.269170000000     0.0350717  
C35      C      0.218830000000     0.343330000000     0.223280000000     0.0349986  
C36      C      0.167860000000     0.382650000000     0.222970000000     0.0351108  
C37      C      0.067980000000     0.238800000000     0.462520000000     0.0344773  
C38      C      0.058750000000     0.290220000000     0.512360000000     0.0351083  
C39      C      0.023650000000     0.263470000000     0.529730000000     0.0344861  
C40      C      0.532880000000     0.212050000000     0.479890000000     0.0351162  
C41      C      0.253450000000     0.495560000000     0.497740000000     0.035039   
C42      C      0.312430000000     0.470710000000     0.478500000000     0.0345513  
C43      C      0.338280000000     0.506580000000     0.494860000000     0.0351164  
C44      C      0.279310000000     0.031430000000     0.514100000000     0.0346398  
C45      C      0.301050000000     0.246600000000     0.540790000000     0.035432   
C46      C      0.316370000000     0.231040000000     0.467260000000     0.0354524  
C47      C      0.290520000000     0.255470000000     0.451630000000     0.0354073  
C48      C      0.275200000000     0.271030000000     0.525160000000     0.0354383  
C49      C      0.245190000000     0.799760000000     0.465250000000     0.346668   
C50      C      0.192870000000     0.860710000000     0.337550000000     0.34393    
C51      C      0.116230000000     0.803340000000     0.462710000000     0.344895   
C52      C      0.245020000000     0.929750000000     0.464270000000     0.344563   
C53      C      0.346430000000     0.702350000000     0.527170000000     0.346618   
C54      C      0.399070000000     0.641690000000     0.654880000000     0.343905   
C55      C      0.346710000000     0.572400000000     0.528290000000     0.344364   
C56      C      0.475430000000     0.698920000000     0.529570000000     0.344803   
C57      C      0.347050000000     0.702900000000     0.965250000000     0.346629   
C58      C      0.399370000000     0.641950000000     0.837540000000     0.343835   
C59      C      0.476010000000     0.699320000000     0.962710000000     0.344837   
C60      C      0.347220000000     0.572910000000     0.964270000000     0.344402   
C61      C      0.193170000000     0.860990000000     0.154880000000     0.343889   
C62      C      0.245810000000     0.800320000000     0.027170000000     0.346729   
C63      C      0.116810000000     0.803760000000     0.029580000000     0.344905   
C64      C      0.245520000000     0.930270000000     0.028290000000     0.344361   
C65      C      0.533480000000     0.712450000000     0.012370000000     0.035088   
C66      C      0.024270000000     0.763860000000     0.962520000000     0.0345081  
C67      C      0.059360000000     0.790610000000     0.979880000000     0.0350646  
C68      C      0.068580000000     0.739210000000     0.029730000000     0.0345502  
C69      C      0.279810000000     0.531970000000     0.978520000000     0.0345678  
C70      C      0.338780000000     0.007100000000     0.997710000000     0.0350801  
C71      C      0.312930000000     0.971230000000     0.014080000000     0.034579   
C72      C      0.253960000000     0.996100000000     0.994890000000     0.0351098  
C73      C      0.301720000000     0.747190000000     0.951630000000     0.035496   
C74      C      0.317040000000     0.731640000000     0.025160000000     0.035362   
C75      C      0.291180000000     0.756080000000     0.040790000000     0.0355597  
C76      C      0.275860000000     0.771620000000     0.967260000000     0.0353561  
C77      C      0.373490000000     0.659410000000     0.769180000000     0.0350592  
C78      C      0.424460000000     0.620090000000     0.769440000000     0.0350677  
C79      C      0.424380000000     0.620020000000     0.722960000000     0.0350758  
C80      C      0.373410000000     0.659340000000     0.723280000000     0.0350506  
C81      C      0.167780000000     0.882580000000     0.269450000000     0.0350661  
C82      C      0.218750000000     0.843260000000     0.269170000000     0.0350552  
C83      C      0.218830000000     0.843330000000     0.223280000000     0.0350023  
C84      C      0.167860000000     0.882650000000     0.222970000000     0.0351082  
C85      C      0.067980000000     0.738810000000     0.462520000000     0.0345498  
C86      C      0.058750000000     0.790220000000     0.512360000000     0.0350783  
C87      C      0.023650000000     0.763460000000     0.529730000000     0.0345692  
C88      C      0.532880000000     0.712050000000     0.479890000000     0.0350847  
C89      C      0.253450000000     0.995560000000     0.497740000000     0.0350456  
C90      C      0.312430000000     0.970710000000     0.478500000000     0.0345614  
C91      C      0.338280000000     0.006580000000     0.494860000000     0.0351152  
C92      C      0.279310000000     0.531430000000     0.514100000000     0.034641   
C93      C      0.301050000000     0.746600000000     0.540790000000     0.0354205  
C94      C      0.316370000000     0.731040000000     0.467260000000     0.0354478  
C95      C      0.290520000000     0.755470000000     0.451630000000     0.0354159  
C96      C      0.275200000000     0.771030000000     0.525160000000     0.0354512  
C97      C      0.745190000000     0.299770000000     0.465250000000     0.346726   
C98      C      0.692870000000     0.360710000000     0.337550000000     0.343928   
C99      C      0.616230000000     0.303340000000     0.462710000000     0.344765   
C100     C      0.745020000000     0.429750000000     0.464270000000     0.344437   
C101     C      0.846430000000     0.202350000000     0.527170000000     0.346641   
C102     C      0.899070000000     0.141690000000     0.654880000000     0.343904   
C103     C      0.846710000000     0.072400000000     0.528290000000     0.344362   
C104     C      0.975430000000     0.198920000000     0.529570000000     0.344697   
C105     C      0.847060000000     0.202900000000     0.965250000000     0.34668    
C106     C      0.899370000000     0.141950000000     0.837540000000     0.343938   
C107     C      0.976010000000     0.199320000000     0.962710000000     0.344818   
C108     C      0.847220000000     0.072910000000     0.964270000000     0.344462   
C109     C      0.693170000000     0.360990000000     0.154880000000     0.343991   
C110     C      0.745810000000     0.300320000000     0.027170000000     0.346768   
C111     C      0.616810000000     0.303760000000     0.029580000000     0.344903   
C112     C      0.745520000000     0.430270000000     0.028290000000     0.344497   
C113     C      0.033480000000     0.212450000000     0.012370000000     0.0350643  
C114     C      0.524260000000     0.263860000000     0.962520000000     0.0345686  
C115     C      0.559360000000     0.290620000000     0.979880000000     0.0350162  
C116     C      0.568580000000     0.239210000000     0.029730000000     0.0345563  
C117     C      0.779810000000     0.031970000000     0.978520000000     0.0345952  
C118     C      0.838780000000     0.507100000000     0.997710000000     0.0351176  
C119     C      0.812930000000     0.471230000000     0.014080000000     0.034559   
C120     C      0.753960000000     0.496100000000     0.994890000000     0.0351211  
C121     C      0.801720000000     0.247190000000     0.951630000000     0.0354916  
C122     C      0.817040000000     0.231640000000     0.025160000000     0.0353857  
C123     C      0.791180000000     0.256070000000     0.040790000000     0.0354971  
C124     C      0.775860000000     0.271620000000     0.967260000000     0.035364   
C125     C      0.873490000000     0.159410000000     0.769180000000     0.0350726  
C126     C      0.924460000000     0.120090000000     0.769440000000     0.0350571  
C127     C      0.924380000000     0.120020000000     0.722960000000     0.0351166  
C128     C      0.873410000000     0.159340000000     0.723280000000     0.0350318  
C129     C      0.667780000000     0.382580000000     0.269450000000     0.0350436  
C130     C      0.718750000000     0.343260000000     0.269170000000     0.0350486  
C131     C      0.718830000000     0.343330000000     0.223280000000     0.0350117  
C132     C      0.667860000000     0.382650000000     0.222970000000     0.0351231  
C133     C      0.567980000000     0.238800000000     0.462520000000     0.0344762  
C134     C      0.558750000000     0.290220000000     0.512360000000     0.0351085  
C135     C      0.523650000000     0.263470000000     0.529730000000     0.0344936  
C136     C      0.032880000000     0.212050000000     0.479890000000     0.0351053  
C137     C      0.753460000000     0.495560000000     0.497740000000     0.0351058  
C138     C      0.812430000000     0.470710000000     0.478500000000     0.0345556  
C139     C      0.838280000000     0.506580000000     0.494860000000     0.0351121  
C140     C      0.779310000000     0.031430000000     0.514100000000     0.0346026  
C141     C      0.801050000000     0.246600000000     0.540790000000     0.0354328  
C142     C      0.816370000000     0.231040000000     0.467260000000     0.0354534  
C143     C      0.790520000000     0.255470000000     0.451630000000     0.0354081  
C144     C      0.775200000000     0.271030000000     0.525160000000     0.035439   
C145     C      0.745190000000     0.799760000000     0.465250000000     0.346668   
C146     C      0.692870000000     0.860710000000     0.337550000000     0.343931   
C147     C      0.616230000000     0.803340000000     0.462710000000     0.344839   
C148     C      0.745020000000     0.929750000000     0.464270000000     0.344479   
C149     C      0.846430000000     0.702350000000     0.527170000000     0.34662    
C150     C      0.899070000000     0.641690000000     0.654880000000     0.343906   
C151     C      0.846710000000     0.572400000000     0.528290000000     0.344362   
C152     C      0.975430000000     0.698910000000     0.529570000000     0.344855   
C153     C      0.847050000000     0.702900000000     0.965250000000     0.346629   
C154     C      0.899370000000     0.641950000000     0.837540000000     0.343836   
C155     C      0.976010000000     0.699320000000     0.962710000000     0.34476    
C156     C      0.847220000000     0.572910000000     0.964270000000     0.344402   
C157     C      0.693170000000     0.860990000000     0.154880000000     0.343889   
C158     C      0.745800000000     0.800320000000     0.027170000000     0.346843   
C159     C      0.616810000000     0.803760000000     0.029580000000     0.344965   
C160     C      0.745520000000     0.930270000000     0.028290000000     0.344361   
C161     C      0.033480000000     0.712450000000     0.012370000000     0.0350866  
C162     C      0.524260000000     0.763860000000     0.962520000000     0.0345197  
C163     C      0.559360000000     0.790610000000     0.979880000000     0.0350469  
C164     C      0.568580000000     0.739210000000     0.029730000000     0.0345626  
C165     C      0.779810000000     0.531970000000     0.978520000000     0.0345685  
C166     C      0.838780000000     0.007100000000     0.997710000000     0.0350814  
C167     C      0.812930000000     0.971230000000     0.014080000000     0.03458    
C168     C      0.753960000000     0.996100000000     0.994890000000     0.0351106  
C169     C      0.801720000000     0.747190000000     0.951630000000     0.0354952  
C170     C      0.817040000000     0.731640000000     0.025160000000     0.0353712  
C171     C      0.791180000000     0.756080000000     0.040790000000     0.0355369  
C172     C      0.775860000000     0.771620000000     0.967260000000     0.0353578  
C173     C      0.873490000000     0.659410000000     0.769180000000     0.0350606  
C174     C      0.924460000000     0.620090000000     0.769440000000     0.0350696  
C175     C      0.924380000000     0.620020000000     0.722960000000     0.0350774  
C176     C      0.873410000000     0.659340000000     0.723280000000     0.0350518  
C177     C      0.667780000000     0.882580000000     0.269450000000     0.0350678  
C178     C      0.718750000000     0.843260000000     0.269170000000     0.0350754  
C179     C      0.718830000000     0.843330000000     0.223280000000     0.0349937  
C180     C      0.667860000000     0.882650000000     0.222970000000     0.035108   
C181     C      0.567980000000     0.738810000000     0.462520000000     0.0345422  
C182     C      0.558750000000     0.790220000000     0.512360000000     0.0351379  
C183     C      0.523650000000     0.763470000000     0.529730000000     0.0344875  
C184     C      0.032880000000     0.712050000000     0.479890000000     0.0350706  
C185     C      0.753460000000     0.995560000000     0.497740000000     0.0351083  
C186     C      0.812430000000     0.970710000000     0.478500000000     0.0345619  
C187     C      0.838280000000     0.006580000000     0.494860000000     0.0351129  
C188     C      0.779310000000     0.531430000000     0.514100000000     0.0346017  
C189     C      0.801060000000     0.746600000000     0.540790000000     0.0354607  
C190     C      0.816370000000     0.731040000000     0.467260000000     0.035452   
C191     C      0.790520000000     0.755470000000     0.451630000000     0.035414   
C192     C      0.775200000000     0.771030000000     0.525160000000     0.0354388  
Cd1      Cd     0.195360000000     0.352330000000     0.432330000000     0.513837   
Cd2      Cd     0.396370000000     0.149880000000     0.560090000000     0.513808   
Cd3      Cd     0.396880000000     0.150330000000     0.932330000000     0.513834   
Cd4      Cd     0.195870000000     0.352790000000     0.060090000000     0.513855   
Cd5      Cd     0.195360000000     0.852340000000     0.432330000000     0.513841   
Cd6      Cd     0.396370000000     0.649880000000     0.560090000000     0.513817   
Cd7      Cd     0.396880000000     0.650330000000     0.932330000000     0.513824   
Cd8      Cd     0.195870000000     0.852790000000     0.060090000000     0.513822   
Cd9      Cd     0.695360000000     0.352330000000     0.432330000000     0.513838   
Cd10     Cd     0.896370000000     0.149880000000     0.560090000000     0.513802   
Cd11     Cd     0.896880000000     0.150330000000     0.932330000000     0.513832   
Cd12     Cd     0.695870000000     0.352790000000     0.060090000000     0.513857   
Cd13     Cd     0.695360000000     0.852340000000     0.432330000000     0.513825   
Cd14     Cd     0.896370000000     0.649880000000     0.560090000000     0.513818   
Cd15     Cd     0.896880000000     0.650330000000     0.932330000000     0.51382    
Cd16     Cd     0.695870000000     0.852790000000     0.060090000000     0.513824   
H1       H      0.524330000000     0.181930000000     0.026350000000     0.0506311  
H2       H      0.007650000000     0.275050000000     0.936020000000     0.0508479  
H3       H      0.068520000000     0.321140000000     0.965900000000     0.0506211  
H4       H      0.085190000000     0.228010000000     0.056230000000     0.0508375  
H5       H      0.265240000000     0.055170000000     0.964800000000     0.0509093  
H6       H      0.372080000000     0.010130000000     0.999560000000     0.0505194  
H7       H      0.327500000000     0.448030000000     0.027800000000     0.0509327  
H8       H      0.220660000000     0.493060000000     0.993040000000     0.0505067  
H9       H      0.304960000000     0.244490000000     0.916110000000     0.0514834  
H10      H      0.332680000000     0.216340000000     0.049190000000     0.0502635  
H11      H      0.287940000000     0.258780000000     0.076320000000     0.0514863  
H12      H      0.260220000000     0.286920000000     0.943230000000     0.0502531  
H13      H      0.352710000000     0.175460000000     0.785740000000     0.0526197  
H14      H      0.445120000000     0.104350000000     0.786600000000     0.0496252  
H15      H      0.444990000000     0.104230000000     0.705770000000     0.0496306  
H16      H      0.352580000000     0.175340000000     0.706750000000     0.0526202  
H17      H      0.147110000000     0.398310000000     0.286620000000     0.0496299  
H18      H      0.239530000000     0.327200000000     0.285720000000     0.0526136  
H19      H      0.239660000000     0.327340000000     0.206740000000     0.0526355  
H20      H      0.147250000000     0.398440000000     0.205780000000     0.0496212  
H21      H      0.084600000000     0.227600000000     0.436030000000     0.05086    
H22      H      0.067900000000     0.320740000000     0.526340000000     0.0506144  
H23      H      0.507040000000     0.274670000000     0.556220000000     0.0508528  
H24      H      0.523730000000     0.181530000000     0.465910000000     0.0506152  
H25      H      0.220160000000     0.492520000000     0.499600000000     0.0505393  
H26      H      0.327000000000     0.447510000000     0.464750000000     0.0509243  
H27      H      0.371580000000     0.509620000000     0.492990000000     0.0505149  
H28      H      0.264740000000     0.054630000000     0.527850000000     0.0509097  
H29      H      0.304300000000     0.243910000000     0.576320000000     0.0515074  
H30      H      0.332020000000     0.215730000000     0.443230000000     0.0502449  
H31      H      0.287280000000     0.258170000000     0.416110000000     0.0515127  
H32      H      0.259560000000     0.286340000000     0.549190000000     0.0502463  
H33      H      0.524330000000     0.681930000000     0.026350000000     0.050626   
H34      H      0.007650000000     0.775050000000     0.936020000000     0.0508481  
H35      H      0.068520000000     0.821130000000     0.965900000000     0.0506234  
H36      H      0.085190000000     0.728010000000     0.056230000000     0.05084    
H37      H      0.265240000000     0.555170000000     0.964800000000     0.0509116  
H38      H      0.372080000000     0.510130000000     0.999560000000     0.0505069  
H39      H      0.327500000000     0.948020000000     0.027800000000     0.0509285  
H40      H      0.220660000000     0.993060000000     0.993040000000     0.050518   
H41      H      0.304960000000     0.744490000000     0.916110000000     0.0514857  
H42      H      0.332680000000     0.716340000000     0.049190000000     0.0502643  
H43      H      0.287940000000     0.758780000000     0.076320000000     0.051475   
H44      H      0.260220000000     0.786920000000     0.943230000000     0.0502519  
H45      H      0.352710000000     0.675460000000     0.785740000000     0.052621   
H46      H      0.445120000000     0.604350000000     0.786600000000     0.0496266  
H47      H      0.444990000000     0.604230000000     0.705770000000     0.0496293  
H48      H      0.352580000000     0.675340000000     0.706750000000     0.0526187  
H49      H      0.147110000000     0.898310000000     0.286620000000     0.0496303  
H50      H      0.239530000000     0.827210000000     0.285720000000     0.0526185  
H51      H      0.239660000000     0.827340000000     0.206740000000     0.0526359  
H52      H      0.147250000000     0.898440000000     0.205780000000     0.049624   
H53      H      0.084600000000     0.727600000000     0.436030000000     0.0508356  
H54      H      0.067900000000     0.820740000000     0.526340000000     0.0506232  
H55      H      0.507030000000     0.774670000000     0.556220000000     0.0508593  
H56      H      0.523730000000     0.681530000000     0.465910000000     0.050622   
H57      H      0.220160000000     0.992520000000     0.499600000000     0.0505381  
H58      H      0.327000000000     0.947510000000     0.464750000000     0.0509275  
H59      H      0.371580000000     0.009620000000     0.492990000000     0.0505172  
H60      H      0.264740000000     0.554630000000     0.527850000000     0.0509077  
H61      H      0.304300000000     0.743900000000     0.576320000000     0.0515107  
H62      H      0.332020000000     0.715730000000     0.443230000000     0.0502451  
H63      H      0.287280000000     0.758160000000     0.416110000000     0.0515026  
H64      H      0.259560000000     0.786340000000     0.549190000000     0.0502417  
H65      H      0.024330000000     0.181930000000     0.026350000000     0.0506278  
H66      H      0.507650000000     0.275060000000     0.936020000000     0.0508367  
H67      H      0.568520000000     0.321140000000     0.965910000000     0.0506414  
H68      H      0.585190000000     0.228010000000     0.056230000000     0.0508408  
H69      H      0.765240000000     0.055170000000     0.964800000000     0.0509108  
H70      H      0.872080000000     0.010130000000     0.999560000000     0.0505222  
H71      H      0.827500000000     0.448030000000     0.027800000000     0.0509342  
H72      H      0.720660000000     0.493060000000     0.993040000000     0.0505081  
H73      H      0.804960000000     0.244490000000     0.916110000000     0.0514905  
H74      H      0.832690000000     0.216340000000     0.049190000000     0.0502675  
H75      H      0.787940000000     0.258780000000     0.076320000000     0.0514941  
H76      H      0.760220000000     0.286920000000     0.943230000000     0.0502537  
H77      H      0.852710000000     0.175460000000     0.785740000000     0.0526188  
H78      H      0.945120000000     0.104350000000     0.786600000000     0.049633   
H79      H      0.944990000000     0.104230000000     0.705770000000     0.0496245  
H80      H      0.852570000000     0.175340000000     0.706750000000     0.0526246  
H81      H      0.647120000000     0.398310000000     0.286620000000     0.0496379  
H82      H      0.739520000000     0.327200000000     0.285720000000     0.0526218  
H83      H      0.739660000000     0.327340000000     0.206740000000     0.0526345  
H84      H      0.647250000000     0.398440000000     0.205780000000     0.049621   
H85      H      0.584600000000     0.227600000000     0.436030000000     0.0508626  
H86      H      0.567900000000     0.320740000000     0.526340000000     0.0506174  
H87      H      0.007040000000     0.274670000000     0.556220000000     0.0508477  
H88      H      0.023730000000     0.181530000000     0.465910000000     0.0506093  
H89      H      0.720160000000     0.492520000000     0.499600000000     0.0505246  
H90      H      0.827000000000     0.447510000000     0.464750000000     0.0509253  
H91      H      0.871580000000     0.509620000000     0.492990000000     0.050519   
H92      H      0.764740000000     0.054630000000     0.527850000000     0.0509199  
H93      H      0.804300000000     0.243910000000     0.576320000000     0.0515082  
H94      H      0.832020000000     0.215730000000     0.443230000000     0.0502464  
H95      H      0.787280000000     0.258170000000     0.416110000000     0.0515141  
H96      H      0.759560000000     0.286340000000     0.549190000000     0.0502473  
H97      H      0.024330000000     0.681930000000     0.026350000000     0.0506201  
H98      H      0.507650000000     0.775050000000     0.936020000000     0.0508513  
H99      H      0.568510000000     0.821130000000     0.965910000000     0.0506306  
H100     H      0.585190000000     0.728010000000     0.056230000000     0.050841   
H101     H      0.765240000000     0.555170000000     0.964800000000     0.0509127  
H102     H      0.872080000000     0.510130000000     0.999560000000     0.0505094  
H103     H      0.827500000000     0.948020000000     0.027800000000     0.0509309  
H104     H      0.720660000000     0.993060000000     0.993040000000     0.0505197  
H105     H      0.804960000000     0.744490000000     0.916110000000     0.0514876  
H106     H      0.832680000000     0.716340000000     0.049190000000     0.0502643  
H107     H      0.787940000000     0.758780000000     0.076320000000     0.0514866  
H108     H      0.760220000000     0.786920000000     0.943230000000     0.0502572  
H109     H      0.852710000000     0.675460000000     0.785740000000     0.0526222  
H110     H      0.945120000000     0.604350000000     0.786600000000     0.04963    
H111     H      0.944990000000     0.604230000000     0.705770000000     0.0496324  
H112     H      0.852580000000     0.675340000000     0.706750000000     0.0526199  
H113     H      0.647110000000     0.898310000000     0.286620000000     0.0496317  
H114     H      0.739530000000     0.827200000000     0.285720000000     0.0526145  
H115     H      0.739660000000     0.827340000000     0.206740000000     0.0526392  
H116     H      0.647250000000     0.898440000000     0.205780000000     0.0496259  
H117     H      0.584600000000     0.727600000000     0.436030000000     0.0508378  
H118     H      0.567900000000     0.820740000000     0.526340000000     0.0506097  
H119     H      0.007030000000     0.774670000000     0.556220000000     0.0508287  
H120     H      0.023730000000     0.681530000000     0.465910000000     0.0506184  
H121     H      0.720160000000     0.992520000000     0.499600000000     0.0505254  
H122     H      0.827000000000     0.947510000000     0.464750000000     0.0509333  
H123     H      0.871580000000     0.009620000000     0.492990000000     0.0505209  
H124     H      0.764740000000     0.554630000000     0.527850000000     0.0509183  
H125     H      0.804300000000     0.743900000000     0.576320000000     0.0514973  
H126     H      0.832020000000     0.715730000000     0.443230000000     0.0502464  
H127     H      0.787280000000     0.758160000000     0.416110000000     0.0515044  
H128     H      0.759560000000     0.786340000000     0.549190000000     0.050246   
N1       N      0.511320000000     0.224850000000     0.978850000000    -0.160585   
N2       N      0.081510000000     0.278220000000     0.013410000000    -0.160552   
N3       N      0.322170000000     0.037420000000     0.979980000000    -0.16064    
N4       N      0.270560000000     0.465780000000     0.012610000000    -0.160629   
N5       N      0.322170000000     0.227270000000     0.980640000000    -0.161615   
N6       N      0.270730000000     0.275990000000     0.011780000000    -0.161605   
N7       N      0.399210000000     0.140170000000     0.792290000000    -0.160867   
N8       N      0.399050000000     0.140030000000     0.700140000000    -0.160834   
N9       N      0.193030000000     0.362500000000     0.292290000000    -0.160819   
N10      N      0.193190000000     0.362650000000     0.200150000000    -0.160812   
N11      N      0.080920000000     0.277820000000     0.478850000000    -0.160566   
N12      N      0.510720000000     0.224450000000     0.513410000000    -0.160593   
N13      N      0.270060000000     0.465250000000     0.479980000000    -0.160596   
N14      N      0.321670000000     0.036890000000     0.512610000000    -0.160635   
N15      N      0.321510000000     0.226680000000     0.511770000000    -0.161574   
N16      N      0.270070000000     0.275400000000     0.480650000000    -0.161579   
N17      N      0.511330000000     0.724850000000     0.978850000000    -0.160547   
N18      N      0.081510000000     0.778220000000     0.013410000000    -0.160546   
N19      N      0.322170000000     0.537410000000     0.979980000000    -0.160609   
N20      N      0.270560000000     0.965780000000     0.012610000000    -0.160607   
N21      N      0.322170000000     0.727270000000     0.980640000000    -0.161597   
N22      N      0.270730000000     0.775990000000     0.011780000000    -0.161621   
N23      N      0.399210000000     0.640170000000     0.792290000000    -0.160847   
N24      N      0.399050000000     0.640030000000     0.700140000000    -0.160835   
N25      N      0.193030000000     0.862500000000     0.292290000000    -0.160816   
N26      N      0.193190000000     0.862650000000     0.200150000000    -0.160794   
N27      N      0.080920000000     0.777820000000     0.478850000000    -0.160606   
N28      N      0.510720000000     0.724450000000     0.513410000000    -0.160588   
N29      N      0.270060000000     0.965250000000     0.479980000000    -0.160618   
N30      N      0.321670000000     0.536890000000     0.512610000000    -0.160636   
N31      N      0.321510000000     0.726680000000     0.511770000000    -0.161572   
N32      N      0.270070000000     0.775400000000     0.480650000000    -0.161609   
N33      N      0.011320000000     0.224850000000     0.978850000000    -0.160572   
N34      N      0.581510000000     0.278220000000     0.013410000000    -0.160533   
N35      N      0.822170000000     0.037420000000     0.979980000000    -0.16064    
N36      N      0.770560000000     0.465780000000     0.012610000000    -0.160628   
N37      N      0.822170000000     0.227270000000     0.980640000000    -0.161572   
N38      N      0.770720000000     0.275990000000     0.011780000000    -0.161639   
N39      N      0.899210000000     0.140170000000     0.792290000000    -0.160864   
N40      N      0.899050000000     0.140020000000     0.700140000000    -0.160836   
N41      N      0.693030000000     0.362500000000     0.292290000000    -0.160811   
N42      N      0.693190000000     0.362650000000     0.200150000000    -0.160816   
N43      N      0.580920000000     0.277820000000     0.478850000000    -0.160564   
N44      N      0.010720000000     0.224450000000     0.513410000000    -0.160582   
N45      N      0.770060000000     0.465250000000     0.479980000000    -0.160616   
N46      N      0.821670000000     0.036890000000     0.512610000000    -0.160628   
N47      N      0.821510000000     0.226680000000     0.511770000000    -0.161574   
N48      N      0.770070000000     0.275400000000     0.480650000000    -0.161578   
N49      N      0.011330000000     0.724850000000     0.978850000000    -0.160542   
N50      N      0.581520000000     0.778220000000     0.013410000000    -0.160577   
N51      N      0.822170000000     0.537410000000     0.979980000000    -0.160608   
N52      N      0.770560000000     0.965780000000     0.012610000000    -0.160606   
N53      N      0.822170000000     0.727270000000     0.980640000000    -0.161599   
N54      N      0.770720000000     0.775990000000     0.011780000000    -0.161623   
N55      N      0.899210000000     0.640170000000     0.792290000000    -0.160846   
N56      N      0.899050000000     0.640030000000     0.700140000000    -0.160835   
N57      N      0.693030000000     0.862500000000     0.292290000000    -0.16082    
N58      N      0.693190000000     0.862650000000     0.200150000000    -0.160792   
N59      N      0.580910000000     0.777820000000     0.478850000000    -0.16058    
N60      N      0.010720000000     0.724450000000     0.513410000000    -0.160607   
N61      N      0.770060000000     0.965250000000     0.479980000000    -0.160619   
N62      N      0.821670000000     0.536890000000     0.512610000000    -0.160629   
N63      N      0.821510000000     0.726680000000     0.511770000000    -0.161585   
N64      N      0.770070000000     0.775400000000     0.480650000000    -0.161606   
O1       O      0.215500000000     0.341010000000     0.357970000000    -0.238992   
O2       O      0.205600000000     0.422910000000     0.465180000000    -0.240481   
O3       O      0.240320000000     0.304720000000     0.424180000000    -0.233712   
O4       O      0.137830000000     0.291750000000     0.432860000000    -0.247178   
O5       O      0.130150000000     0.339310000000     0.477620000000    -0.240622   
O6       O      0.226170000000     0.319060000000     0.491200000000    -0.245151   
O7       O      0.170110000000     0.377880000000     0.361470000000    -0.244555   
O8       O      0.260130000000     0.401420000000     0.448270000000    -0.246612   
O9       O      0.376370000000     0.161320000000     0.634470000000    -0.238995   
O10      O      0.461530000000     0.162940000000     0.514700000000    -0.240672   
O11      O      0.351300000000     0.197400000000     0.568240000000    -0.233665   
O12      O      0.331600000000     0.100730000000     0.544280000000    -0.24661    
O13      O      0.386140000000     0.079270000000     0.527320000000    -0.240414   
O14      O      0.365480000000     0.183080000000     0.501220000000    -0.245084   
O15      O      0.421780000000     0.124470000000     0.630940000000    -0.24452    
O16      O      0.453840000000     0.210510000000     0.559440000000    -0.247148   
O17      O      0.376740000000     0.161650000000     0.857970000000    -0.238976   
O18      O      0.386640000000     0.079750000000     0.965160000000    -0.240502   
O19      O      0.351920000000     0.197940000000     0.924180000000    -0.233704   
O20      O      0.454420000000     0.210910000000     0.932860000000    -0.24723    
O21      O      0.462090000000     0.163360000000     0.977620000000    -0.240714   
O22      O      0.366070000000     0.183610000000     0.991200000000    -0.245128   
O23      O      0.422130000000     0.124780000000     0.861460000000    -0.244534   
O24      O      0.332110000000     0.101250000000     0.948300000000    -0.246612   
O25      O      0.240930000000     0.305280000000     0.068240000000    -0.233676   
O26      O      0.206100000000     0.423400000000     0.027340000000    -0.240521   
O27      O      0.215870000000     0.341360000000     0.134470000000    -0.239029   
O28      O      0.130710000000     0.339730000000     0.014700000000    -0.240718   
O29      O      0.138390000000     0.292170000000     0.059440000000    -0.247245   
O30      O      0.170460000000     0.378200000000     0.130950000000    -0.244596   
O31      O      0.226750000000     0.319580000000     0.001230000000    -0.245119   
O32      O      0.260640000000     0.401940000000     0.044260000000    -0.24663    
O33      O      0.215500000000     0.841010000000     0.357970000000    -0.238986   
O34      O      0.205600000000     0.922910000000     0.465180000000    -0.240531   
O35      O      0.240320000000     0.804720000000     0.424180000000    -0.233665   
O36      O      0.137830000000     0.791750000000     0.432860000000    -0.247199   
O37      O      0.130150000000     0.839300000000     0.477620000000    -0.240717   
O38      O      0.226170000000     0.819060000000     0.491200000000    -0.245076   
O39      O      0.170110000000     0.877880000000     0.361470000000    -0.244562   
O40      O      0.260130000000     0.901430000000     0.448270000000    -0.246705   
O41      O      0.376370000000     0.661320000000     0.634470000000    -0.238994   
O42      O      0.461530000000     0.662940000000     0.514700000000    -0.240672   
O43      O      0.351310000000     0.697400000000     0.568240000000    -0.233657   
O44      O      0.331600000000     0.600730000000     0.544280000000    -0.246613   
O45      O      0.386140000000     0.579270000000     0.527320000000    -0.240416   
O46      O      0.365480000000     0.683080000000     0.501220000000    -0.245074   
O47      O      0.421780000000     0.624470000000     0.630940000000    -0.244521   
O48      O      0.453840000000     0.710510000000     0.559440000000    -0.247146   
O49      O      0.376740000000     0.661660000000     0.857970000000    -0.238902   
O50      O      0.386640000000     0.579750000000     0.965160000000    -0.240488   
O51      O      0.351920000000     0.697940000000     0.924180000000    -0.233679   
O52      O      0.454420000000     0.710910000000     0.932860000000    -0.247214   
O53      O      0.462090000000     0.663360000000     0.977620000000    -0.240697   
O54      O      0.366080000000     0.683610000000     0.991200000000    -0.245069   
O55      O      0.422130000000     0.624780000000     0.861460000000    -0.244512   
O56      O      0.332110000000     0.601250000000     0.948300000000    -0.246605   
O57      O      0.240930000000     0.805270000000     0.068240000000    -0.233688   
O58      O      0.206100000000     0.923410000000     0.027340000000    -0.240476   
O59      O      0.215870000000     0.841350000000     0.134470000000    -0.238956   
O60      O      0.130710000000     0.839730000000     0.014700000000    -0.240718   
O61      O      0.138390000000     0.792170000000     0.059440000000    -0.247242   
O62      O      0.170460000000     0.878200000000     0.130950000000    -0.244574   
O63      O      0.226750000000     0.819580000000     0.001230000000    -0.245129   
O64      O      0.260640000000     0.901930000000     0.044260000000    -0.246556   
O65      O      0.715500000000     0.341010000000     0.357970000000    -0.23899    
O66      O      0.705600000000     0.422910000000     0.465180000000    -0.240482   
O67      O      0.740320000000     0.304720000000     0.424180000000    -0.233711   
O68      O      0.637830000000     0.291750000000     0.432860000000    -0.247176   
O69      O      0.630150000000     0.339310000000     0.477620000000    -0.240621   
O70      O      0.726170000000     0.319060000000     0.491200000000    -0.24515    
O71      O      0.670110000000     0.377880000000     0.361470000000    -0.244552   
O72      O      0.760130000000     0.401420000000     0.448270000000    -0.246612   
O73      O      0.876370000000     0.161320000000     0.634470000000    -0.238995   
O74      O      0.961530000000     0.162930000000     0.514700000000    -0.240576   
O75      O      0.851300000000     0.197400000000     0.568240000000    -0.233665   
O76      O      0.831600000000     0.100730000000     0.544280000000    -0.246608   
O77      O      0.886140000000     0.079270000000     0.527320000000    -0.24041    
O78      O      0.865480000000     0.183080000000     0.501220000000    -0.245085   
O79      O      0.921780000000     0.124470000000     0.630940000000    -0.244514   
O80      O      0.953840000000     0.210510000000     0.559440000000    -0.247114   
O81      O      0.876740000000     0.161650000000     0.857970000000    -0.238974   
O82      O      0.886640000000     0.079750000000     0.965160000000    -0.240499   
O83      O      0.851920000000     0.197940000000     0.924180000000    -0.233705   
O84      O      0.954420000000     0.210910000000     0.932850000000    -0.247159   
O85      O      0.962090000000     0.163360000000     0.977620000000    -0.240685   
O86      O      0.866080000000     0.183610000000     0.991200000000    -0.245131   
O87      O      0.922130000000     0.124780000000     0.861460000000    -0.244529   
O88      O      0.832110000000     0.101250000000     0.948300000000    -0.246611   
O89      O      0.740930000000     0.305280000000     0.068240000000    -0.233691   
O90      O      0.706100000000     0.423400000000     0.027340000000    -0.240519   
O91      O      0.715870000000     0.341360000000     0.134470000000    -0.239027   
O92      O      0.630710000000     0.339730000000     0.014700000000    -0.240715   
O93      O      0.638390000000     0.292170000000     0.059440000000    -0.247242   
O94      O      0.670460000000     0.378200000000     0.130950000000    -0.244594   
O95      O      0.726750000000     0.319580000000     0.001230000000    -0.245133   
O96      O      0.760640000000     0.401940000000     0.044260000000    -0.24663    
O97      O      0.715500000000     0.841010000000     0.357970000000    -0.238986   
O98      O      0.705600000000     0.922910000000     0.465180000000    -0.240516   
O99      O      0.740320000000     0.804720000000     0.424180000000    -0.233665   
O100     O      0.637830000000     0.791750000000     0.432860000000    -0.247184   
O101     O      0.630150000000     0.839300000000     0.477620000000    -0.240701   
O102     O      0.726170000000     0.819060000000     0.491200000000    -0.245078   
O103     O      0.670110000000     0.877880000000     0.361470000000    -0.244561   
O104     O      0.760140000000     0.901430000000     0.448270000000    -0.246637   
O105     O      0.876370000000     0.661320000000     0.634470000000    -0.238993   
O106     O      0.961530000000     0.662940000000     0.514700000000    -0.240741   
O107     O      0.851310000000     0.697400000000     0.568240000000    -0.233657   
O108     O      0.831600000000     0.600730000000     0.544280000000    -0.246611   
O109     O      0.886140000000     0.579270000000     0.527320000000    -0.240411   
O110     O      0.865480000000     0.683080000000     0.501220000000    -0.245071   
O111     O      0.921780000000     0.624470000000     0.630940000000    -0.244519   
O112     O      0.953840000000     0.710510000000     0.559440000000    -0.247123   
O113     O      0.876740000000     0.661660000000     0.857970000000    -0.2389     
O114     O      0.886640000000     0.579750000000     0.965160000000    -0.240486   
O115     O      0.851920000000     0.697940000000     0.924180000000    -0.233679   
O116     O      0.954420000000     0.710910000000     0.932850000000    -0.247141   
O117     O      0.962090000000     0.663360000000     0.977620000000    -0.24067    
O118     O      0.866080000000     0.683610000000     0.991200000000    -0.245069   
O119     O      0.922130000000     0.624780000000     0.861460000000    -0.244508   
O120     O      0.832110000000     0.601250000000     0.948300000000    -0.246604   
O121     O      0.740930000000     0.805270000000     0.068240000000    -0.23373    
O122     O      0.706100000000     0.923410000000     0.027340000000    -0.240473   
O123     O      0.715870000000     0.841350000000     0.134470000000    -0.238953   
O124     O      0.630710000000     0.839730000000     0.014700000000    -0.240729   
O125     O      0.638390000000     0.792170000000     0.059440000000    -0.247256   
O126     O      0.670460000000     0.878200000000     0.130950000000    -0.244572   
O127     O      0.726750000000     0.819580000000     0.001230000000    -0.245202   
O128     O      0.760640000000     0.901930000000     0.044260000000    -0.246552   


