data_structure

_audit_creation_method RASPA-1.0
_audit_creation_date 2023-5-23
_audit_author_name 'Poobodin Mano'

_cell_length_a    42.6464
_cell_length_b    42.6467
_cell_length_c    32.2394
_cell_angle_alpha 90.0021
_cell_angle_beta  90.0021
_cell_angle_gamma 120
_cell_volume      50779.1

_symmetry_cell_setting          triclinic
_symmetry_space_group_name_Hall 'P 1'
_symmetry_space_group_name_H-M  'P 1'
_symmetry_Int_Tables_number     1

_symmetry_equiv_pos_as_xyz 'x,y,z'

loop_
_atom_site_label
_atom_site_type_symbol
_atom_site_fract_x
_atom_site_fract_y
_atom_site_fract_z
_atom_site_charge
C1       C      0.318820000000     0.263360000000     0.496360000000     0.340223   
C2       C      0.444640000000     0.263380000000     0.516700000000     0.340279   
C3       C      0.349750000000     0.213810000000     0.589960000000     0.341296   
C4       C      0.364160000000     0.213750000000     0.423160000000     0.341269   
C5       C      0.288640000000     0.107220000000     0.163020000000     0.340165   
C6       C      0.288620000000     0.233010000000     0.183360000000     0.340227   
C7       C      0.338200000000     0.187690000000     0.256620000000     0.341183   
C8       C      0.338260000000     0.202170000000     0.089830000000     0.341174   
C9       C      0.215840000000     0.305790000000     0.496290000000     0.340236   
C10      C      0.090050000000     0.305810000000     0.516630000000     0.340131   
C11      C      0.185000000000     0.355430000000     0.589820000000     0.341402   
C12      C      0.170520000000     0.355370000000     0.423030000000     0.341359   
C13      C      0.246190000000     0.335990000000     0.183300000000     0.340228   
C14      C      0.246210000000     0.461810000000     0.162960000000     0.340337   
C15      C      0.196640000000     0.366920000000     0.089690000000     0.341198   
C16      C      0.196580000000     0.381340000000     0.256490000000     0.341361   
C17      C      0.216040000000     0.461980000000     0.849960000000     0.340341   
C18      C      0.090220000000     0.336190000000     0.829620000000     0.340218   
C19      C      0.185110000000     0.381500000000     0.756360000000     0.341309   
C20      C      0.170690000000     0.367030000000     0.923160000000     0.341142   
C21      C      0.319020000000     0.107390000000     0.850030000000     0.340309   
C22      C      0.444810000000     0.233200000000     0.829690000000     0.340239   
C23      C      0.349850000000     0.187860000000     0.756500000000     0.341474   
C24      C      0.364330000000     0.202280000000     0.923300000000     0.341473   
C25      C      0.277600000000     0.008840000000     0.853340000000     0.0344327  
C26      C      0.231290000000     0.023780000000     0.853180000000     0.0351989  
C27      C      0.257450000000     0.060530000000     0.853390000000     0.0344639  
C28      C      0.303770000000     0.045590000000     0.853170000000     0.0352488  
C29      C      0.043350000000     0.274620000000     0.826260000000     0.0346732  
C30      C      0.028420000000     0.320940000000     0.826490000000     0.0347536  
C31      C      0.491670000000     0.294770000000     0.826320000000     0.0345329  
C32      C      0.006610000000     0.248460000000     0.826470000000     0.0343229  
C33      C      0.156020000000     0.359330000000     0.035080000000     0.0353349  
C34      C      0.210520000000     0.359960000000     0.020190000000     0.0350586  
C35      C      0.203700000000     0.359370000000     0.977750000000     0.0353476  
C36      C      0.149820000000     0.359980000000     0.992650000000     0.0350319  
C37      C      0.192660000000     0.396090000000     0.644420000000     0.0353637  
C38      C      0.192060000000     0.341610000000     0.659320000000     0.0349933  
C39      C      0.192700000000     0.348470000000     0.701750000000     0.0354536  
C40      C      0.192070000000     0.402330000000     0.686850000000     0.0349979  
C41      C      0.203550000000     0.396000000000     0.368420000000     0.0353349  
C42      C      0.149690000000     0.341500000000     0.353520000000     0.0350789  
C43      C      0.155920000000     0.348320000000     0.311090000000     0.035276   
C44      C      0.210400000000     0.402200000000     0.326000000000     0.0350581  
C45      C      0.303350000000     0.060360000000     0.159650000000     0.034484   
C46      C      0.242090000000     0.045420000000     0.159800000000     0.0352192  
C47      C      0.231510000000     0.008670000000     0.159600000000     0.0344513  
C48      C      0.292760000000     0.023610000000     0.159830000000     0.0352066  
C49      C      0.303320000000     0.294580000000     0.186720000000     0.0344634  
C50      C      0.242060000000     0.248260000000     0.186490000000     0.0352243  
C51      C      0.231480000000     0.274420000000     0.186660000000     0.0344558  
C52      C      0.292740000000     0.320740000000     0.186520000000     0.0352456  
C53      C      0.378920000000     0.209830000000     0.035240000000     0.0353637  
C54      C      0.324440000000     0.209220000000     0.020330000000     0.0350829  
C55      C      0.331290000000     0.209870000000     0.977900000000     0.0353461  
C56      C      0.385160000000     0.209240000000     0.992810000000     0.0350057  
C57      C      0.342790000000     0.227680000000     0.659470000000     0.0351179  
C58      C      0.342160000000     0.173190000000     0.644570000000     0.0353466  
C59      C      0.342800000000     0.166980000000     0.687000000000     0.0350639  
C60      C      0.342200000000     0.220860000000     0.701900000000     0.0353004  
C61      C      0.028250000000     0.259260000000     0.519840000000     0.0346899  
C62      C      0.043190000000     0.320520000000     0.520000000000     0.0346787  
C63      C      0.506440000000     0.309930000000     0.519830000000     0.035263   
C64      C      0.491500000000     0.248680000000     0.520050000000     0.0345711  
C65      C      0.257250000000     0.248650000000     0.492990000000     0.0344144  
C66      C      0.303570000000     0.309910000000     0.493140000000     0.0352365  
C67      C      0.277410000000     0.320490000000     0.492930000000     0.0344701  
C68      C      0.231090000000     0.259240000000     0.493160000000     0.0353201  
C69      C      0.331150000000     0.173090000000     0.368560000000     0.0353465  
C70      C      0.385030000000     0.227570000000     0.353660000000     0.0350286  
C71      C      0.378820000000     0.220720000000     0.311230000000     0.0353794  
C72      C      0.324330000000     0.166860000000     0.326130000000     0.0350484  
C73      C      0.318820000000     0.763360000000     0.496360000000     0.340228   
C74      C      0.444640000000     0.763380000000     0.516700000000     0.340302   
C75      C      0.349750000000     0.713810000000     0.589960000000     0.341248   
C76      C      0.364160000000     0.713750000000     0.423160000000     0.341327   
C77      C      0.288640000000     0.607220000000     0.163020000000     0.340167   
C78      C      0.288620000000     0.733010000000     0.183360000000     0.340243   
C79      C      0.338200000000     0.687690000000     0.256620000000     0.341184   
C80      C      0.338250000000     0.702170000000     0.089830000000     0.341198   
C81      C      0.215840000000     0.805790000000     0.496290000000     0.340311   
C82      C      0.090050000000     0.805810000000     0.516630000000     0.340131   
C83      C      0.185000000000     0.855430000000     0.589820000000     0.341326   
C84      C      0.170520000000     0.855370000000     0.423030000000     0.341281   
C85      C      0.246190000000     0.835990000000     0.183300000000     0.340225   
C86      C      0.246210000000     0.961810000000     0.162960000000     0.34027    
C87      C      0.196640000000     0.866920000000     0.089690000000     0.341333   
C88      C      0.196580000000     0.881340000000     0.256490000000     0.341442   
C89      C      0.216030000000     0.961980000000     0.849960000000     0.340428   
C90      C      0.090220000000     0.836190000000     0.829620000000     0.340393   
C91      C      0.185110000000     0.881500000000     0.756360000000     0.341383   
C92      C      0.170690000000     0.867030000000     0.923160000000     0.341142   
C93      C      0.319020000000     0.607390000000     0.850030000000     0.340486   
C94      C      0.444810000000     0.733210000000     0.829690000000     0.340227   
C95      C      0.349850000000     0.687860000000     0.756500000000     0.341342   
C96      C      0.364330000000     0.702280000000     0.923300000000     0.341398   
C97      C      0.277600000000     0.508840000000     0.853330000000     0.0344914  
C98      C      0.231290000000     0.523780000000     0.853180000000     0.0353175  
C99      C      0.257450000000     0.560530000000     0.853380000000     0.0344299  
C100     C      0.303770000000     0.545590000000     0.853160000000     0.035248   
C101     C      0.043350000000     0.774620000000     0.826260000000     0.0346774  
C102     C      0.028420000000     0.820940000000     0.826490000000     0.0347856  
C103     C      0.491670000000     0.794770000000     0.826320000000     0.034526   
C104     C      0.006610000000     0.748460000000     0.826470000000     0.0343328  
C105     C      0.156020000000     0.859330000000     0.035080000000     0.0353433  
C106     C      0.210520000000     0.859960000000     0.020190000000     0.0350659  
C107     C      0.203700000000     0.859370000000     0.977750000000     0.0353468  
C108     C      0.149820000000     0.859980000000     0.992650000000     0.0350304  
C109     C      0.192660000000     0.896090000000     0.644420000000     0.0353628  
C110     C      0.192060000000     0.841610000000     0.659320000000     0.0350264  
C111     C      0.192700000000     0.848470000000     0.701750000000     0.0354211  
C112     C      0.192070000000     0.902330000000     0.686850000000     0.0350051  
C113     C      0.203550000000     0.896000000000     0.368420000000     0.0353418  
C114     C      0.149690000000     0.841500000000     0.353520000000     0.0350052  
C115     C      0.155930000000     0.848330000000     0.311090000000     0.0353996  
C116     C      0.210410000000     0.902200000000     0.326000000000     0.0350421  
C117     C      0.303350000000     0.560360000000     0.159650000000     0.0344978  
C118     C      0.242090000000     0.545420000000     0.159800000000     0.0352207  
C119     C      0.231510000000     0.508670000000     0.159600000000     0.0344932  
C120     C      0.292770000000     0.523610000000     0.159830000000     0.035229   
C121     C      0.303320000000     0.794580000000     0.186720000000     0.0344667  
C122     C      0.242070000000     0.748260000000     0.186490000000     0.0353062  
C123     C      0.231480000000     0.774430000000     0.186660000000     0.0344682  
C124     C      0.292740000000     0.820740000000     0.186520000000     0.0352434  
C125     C      0.378920000000     0.709830000000     0.035240000000     0.0353913  
C126     C      0.324440000000     0.709220000000     0.020330000000     0.035073   
C127     C      0.331290000000     0.709870000000     0.977900000000     0.0353481  
C128     C      0.385160000000     0.709240000000     0.992810000000     0.0349925  
C129     C      0.342790000000     0.727690000000     0.659470000000     0.0350197  
C130     C      0.342160000000     0.673190000000     0.644570000000     0.0353272  
C131     C      0.342800000000     0.666980000000     0.687000000000     0.0350766  
C132     C      0.342200000000     0.720860000000     0.701900000000     0.0353533  
C133     C      0.028250000000     0.759260000000     0.519840000000     0.0347192  
C134     C      0.043190000000     0.820520000000     0.520000000000     0.0346517  
C135     C      0.506440000000     0.809930000000     0.519830000000     0.0353308  
C136     C      0.491500000000     0.748680000000     0.520050000000     0.0345013  
C137     C      0.257250000000     0.748660000000     0.492990000000     0.03449    
C138     C      0.303570000000     0.809910000000     0.493140000000     0.0352221  
C139     C      0.277410000000     0.820490000000     0.492930000000     0.0345076  
C140     C      0.231090000000     0.759240000000     0.493160000000     0.0352265  
C141     C      0.331150000000     0.673090000000     0.368560000000     0.0353514  
C142     C      0.385030000000     0.727570000000     0.353660000000     0.0350322  
C143     C      0.378820000000     0.720720000000     0.311230000000     0.0353795  
C144     C      0.324330000000     0.666860000000     0.326130000000     0.0350487  
C145     C      0.818820000000     0.263360000000     0.496360000000     0.340267   
C146     C      0.944640000000     0.263380000000     0.516700000000     0.34028    
C147     C      0.849740000000     0.213810000000     0.589960000000     0.341248   
C148     C      0.864160000000     0.213750000000     0.423160000000     0.341276   
C149     C      0.788640000000     0.107220000000     0.163020000000     0.340165   
C150     C      0.788620000000     0.233010000000     0.183360000000     0.340303   
C151     C      0.838200000000     0.187690000000     0.256620000000     0.341189   
C152     C      0.838260000000     0.202170000000     0.089830000000     0.341359   
C153     C      0.715840000000     0.305790000000     0.496290000000     0.340237   
C154     C      0.590050000000     0.305810000000     0.516630000000     0.340154   
C155     C      0.685000000000     0.355430000000     0.589820000000     0.341409   
C156     C      0.670520000000     0.355370000000     0.423030000000     0.341365   
C157     C      0.746190000000     0.335990000000     0.183300000000     0.340226   
C158     C      0.746210000000     0.461810000000     0.162960000000     0.340162   
C159     C      0.696640000000     0.366920000000     0.089690000000     0.341378   
C160     C      0.696580000000     0.381340000000     0.256490000000     0.341439   
C161     C      0.716030000000     0.461980000000     0.849960000000     0.340351   
C162     C      0.590220000000     0.336190000000     0.829620000000     0.34024    
C163     C      0.685110000000     0.381500000000     0.756360000000     0.341312   
C164     C      0.670690000000     0.367030000000     0.923160000000     0.341147   
C165     C      0.819020000000     0.107390000000     0.850030000000     0.340486   
C166     C      0.944810000000     0.233200000000     0.829690000000     0.340242   
C167     C      0.849850000000     0.187860000000     0.756500000000     0.341481   
C168     C      0.864330000000     0.202280000000     0.923300000000     0.341403   
C169     C      0.777600000000     0.008840000000     0.853340000000     0.0344626  
C170     C      0.731290000000     0.023780000000     0.853180000000     0.035219   
C171     C      0.757450000000     0.060530000000     0.853390000000     0.0344715  
C172     C      0.803770000000     0.045590000000     0.853170000000     0.0352568  
C173     C      0.543350000000     0.274620000000     0.826270000000     0.0344685  
C174     C      0.528420000000     0.320940000000     0.826490000000     0.0352711  
C175     C      0.991670000000     0.294770000000     0.826320000000     0.0351129  
C176     C      0.506610000000     0.248460000000     0.826470000000     0.0352299  
C177     C      0.656020000000     0.359330000000     0.035080000000     0.0353606  
C178     C      0.710520000000     0.359960000000     0.020190000000     0.0350778  
C179     C      0.703700000000     0.359370000000     0.977750000000     0.0353567  
C180     C      0.649820000000     0.359980000000     0.992650000000     0.035045   
C181     C      0.692660000000     0.396090000000     0.644420000000     0.0353793  
C182     C      0.692060000000     0.341610000000     0.659320000000     0.0350226  
C183     C      0.692700000000     0.348470000000     0.701750000000     0.0354356  
C184     C      0.692070000000     0.402330000000     0.686850000000     0.0350105  
C185     C      0.703550000000     0.396000000000     0.368420000000     0.035365   
C186     C      0.649690000000     0.341500000000     0.353520000000     0.0350969  
C187     C      0.655920000000     0.348320000000     0.311090000000     0.035295   
C188     C      0.710410000000     0.402200000000     0.326000000000     0.0350424  
C189     C      0.803350000000     0.060360000000     0.159650000000     0.0344945  
C190     C      0.742090000000     0.045420000000     0.159800000000     0.035229   
C191     C      0.731510000000     0.008670000000     0.159600000000     0.0344598  
C192     C      0.792760000000     0.023610000000     0.159830000000     0.0352182  
C193     C      0.803320000000     0.294580000000     0.186720000000     0.0345153  
C194     C      0.742060000000     0.248260000000     0.186490000000     0.0351777  
C195     C      0.731480000000     0.274420000000     0.186660000000     0.0344859  
C196     C      0.792740000000     0.320740000000     0.186520000000     0.0352388  
C197     C      0.878920000000     0.209830000000     0.035240000000     0.0353962  
C198     C      0.824440000000     0.209220000000     0.020330000000     0.0351424  
C199     C      0.831290000000     0.209870000000     0.977900000000     0.0353375  
C200     C      0.885160000000     0.209240000000     0.992810000000     0.0350202  
C201     C      0.842790000000     0.227680000000     0.659470000000     0.0351273  
C202     C      0.842160000000     0.173190000000     0.644570000000     0.0353675  
C203     C      0.842800000000     0.166980000000     0.687000000000     0.0350799  
C204     C      0.842200000000     0.220860000000     0.701900000000     0.0353204  
C205     C      0.528250000000     0.259260000000     0.519850000000     0.0351895  
C206     C      0.543190000000     0.320520000000     0.520000000000     0.0344701  
C207     C      0.006440000000     0.309930000000     0.519830000000     0.0343526  
C208     C      0.991500000000     0.248680000000     0.520050000000     0.035118   
C209     C      0.757250000000     0.248650000000     0.492990000000     0.0344295  
C210     C      0.803570000000     0.309910000000     0.493140000000     0.0352473  
C211     C      0.777410000000     0.320490000000     0.492930000000     0.0344801  
C212     C      0.731090000000     0.259240000000     0.493160000000     0.0353267  
C213     C      0.831150000000     0.173090000000     0.368560000000     0.0353606  
C214     C      0.885030000000     0.227570000000     0.353660000000     0.0350432  
C215     C      0.878820000000     0.220720000000     0.311230000000     0.035418   
C216     C      0.824330000000     0.166860000000     0.326130000000     0.0350627  
C217     C      0.818820000000     0.763360000000     0.496360000000     0.340269   
C218     C      0.944640000000     0.763380000000     0.516700000000     0.340304   
C219     C      0.849750000000     0.713810000000     0.589960000000     0.341305   
C220     C      0.864160000000     0.713750000000     0.423160000000     0.341335   
C221     C      0.788640000000     0.607220000000     0.163020000000     0.340168   
C222     C      0.788620000000     0.733010000000     0.183360000000     0.340243   
C223     C      0.838200000000     0.687690000000     0.256620000000     0.341189   
C224     C      0.838250000000     0.702170000000     0.089830000000     0.341204   
C225     C      0.715840000000     0.805790000000     0.496290000000     0.340312   
C226     C      0.590050000000     0.805810000000     0.516630000000     0.340154   
C227     C      0.685000000000     0.855430000000     0.589820000000     0.341332   
C228     C      0.670520000000     0.855370000000     0.423030000000     0.341287   
C229     C      0.746190000000     0.835990000000     0.183300000000     0.340227   
C230     C      0.746210000000     0.961810000000     0.162960000000     0.340269   
C231     C      0.696640000000     0.866920000000     0.089690000000     0.341336   
C232     C      0.696580000000     0.881340000000     0.256490000000     0.341445   
C233     C      0.716040000000     0.961980000000     0.849960000000     0.340417   
C234     C      0.590220000000     0.836190000000     0.829620000000     0.340414   
C235     C      0.685110000000     0.881500000000     0.756360000000     0.34131    
C236     C      0.670690000000     0.867030000000     0.923160000000     0.341148   
C237     C      0.819020000000     0.607390000000     0.850030000000     0.340488   
C238     C      0.944810000000     0.733210000000     0.829690000000     0.340227   
C239     C      0.849850000000     0.687860000000     0.756500000000     0.341346   
C240     C      0.864330000000     0.702280000000     0.923300000000     0.341227   
C241     C      0.777600000000     0.508840000000     0.853330000000     0.0345366  
C242     C      0.731280000000     0.523780000000     0.853180000000     0.0352154  
C243     C      0.757450000000     0.560530000000     0.853380000000     0.0344983  
C244     C      0.803770000000     0.545590000000     0.853160000000     0.0352466  
C245     C      0.543360000000     0.774620000000     0.826270000000     0.0344176  
C246     C      0.528420000000     0.820940000000     0.826490000000     0.0352842  
C247     C      0.991670000000     0.794770000000     0.826320000000     0.0350677  
C248     C      0.506610000000     0.748460000000     0.826470000000     0.0352798  
C249     C      0.656020000000     0.859330000000     0.035080000000     0.0353601  
C250     C      0.710520000000     0.859960000000     0.020190000000     0.0350772  
C251     C      0.703700000000     0.859370000000     0.977750000000     0.0353594  
C252     C      0.649820000000     0.859980000000     0.992650000000     0.0350476  
C253     C      0.692660000000     0.896090000000     0.644420000000     0.0353824  
C254     C      0.692060000000     0.841610000000     0.659320000000     0.0350724  
C255     C      0.692710000000     0.848470000000     0.701750000000     0.0353722  
C256     C      0.692070000000     0.902330000000     0.686850000000     0.0350122  
C257     C      0.703550000000     0.896000000000     0.368420000000     0.0353541  
C258     C      0.649690000000     0.841500000000     0.353520000000     0.0350221  
C259     C      0.655930000000     0.848330000000     0.311090000000     0.0354167  
C260     C      0.710410000000     0.902200000000     0.326000000000     0.0350535  
C261     C      0.803350000000     0.560360000000     0.159650000000     0.034513   
C262     C      0.742090000000     0.545420000000     0.159800000000     0.0352335  
C263     C      0.731510000000     0.508670000000     0.159600000000     0.0344962  
C264     C      0.792770000000     0.523610000000     0.159830000000     0.0352303  
C265     C      0.803320000000     0.794580000000     0.186720000000     0.0344773  
C266     C      0.742070000000     0.748260000000     0.186490000000     0.0353161  
C267     C      0.731480000000     0.774430000000     0.186660000000     0.0344774  
C268     C      0.792740000000     0.820740000000     0.186520000000     0.0352548  
C269     C      0.878920000000     0.709830000000     0.035240000000     0.0354181  
C270     C      0.824440000000     0.709220000000     0.020330000000     0.0350894  
C271     C      0.831290000000     0.709870000000     0.977900000000     0.0353562  
C272     C      0.885160000000     0.709240000000     0.992810000000     0.0350042  
C273     C      0.842790000000     0.727680000000     0.659470000000     0.035142   
C274     C      0.842150000000     0.673190000000     0.644570000000     0.0354044  
C275     C      0.842800000000     0.666980000000     0.687000000000     0.035058   
C276     C      0.842200000000     0.720860000000     0.701900000000     0.0353083  
C277     C      0.528250000000     0.759260000000     0.519850000000     0.0352188  
C278     C      0.543190000000     0.820520000000     0.520000000000     0.0344438  
C279     C      0.006440000000     0.809930000000     0.519830000000     0.0344229  
C280     C      0.991500000000     0.748680000000     0.520050000000     0.0350474  
C281     C      0.757250000000     0.748660000000     0.492990000000     0.0345042  
C282     C      0.803570000000     0.809910000000     0.493140000000     0.0352319  
C283     C      0.777410000000     0.820490000000     0.492930000000     0.0345175  
C284     C      0.731090000000     0.759240000000     0.493160000000     0.0352331  
C285     C      0.831150000000     0.673090000000     0.368560000000     0.0353663  
C286     C      0.885030000000     0.727570000000     0.353660000000     0.0350544  
C287     C      0.878820000000     0.720720000000     0.311230000000     0.0354022  
C288     C      0.824330000000     0.666860000000     0.326130000000     0.0350624  
Cd1      Cd     0.369180000000     0.238260000000     0.506550000000     0.518951   
Cd2      Cd     0.313740000000     0.182670000000     0.173210000000     0.518932   
Cd3      Cd     0.165500000000     0.330910000000     0.506440000000     0.518926   
Cd4      Cd     0.221100000000     0.386350000000     0.173110000000     0.518912   
Cd5      Cd     0.165680000000     0.386530000000     0.839770000000     0.518924   
Cd6      Cd     0.369360000000     0.182850000000     0.839880000000     0.518971   
Cd7      Cd     0.369180000000     0.738260000000     0.506550000000     0.518949   
Cd8      Cd     0.313740000000     0.682670000000     0.173210000000     0.518933   
Cd9      Cd     0.165500000000     0.830910000000     0.506440000000     0.518913   
Cd10     Cd     0.221090000000     0.886350000000     0.173110000000     0.518962   
Cd11     Cd     0.165680000000     0.886530000000     0.839770000000     0.518956   
Cd12     Cd     0.369360000000     0.682850000000     0.839880000000     0.518955   
Cd13     Cd     0.869180000000     0.238260000000     0.506550000000     0.518946   
Cd14     Cd     0.813740000000     0.182670000000     0.173210000000     0.518963   
Cd15     Cd     0.665500000000     0.330910000000     0.506440000000     0.51894    
Cd16     Cd     0.721100000000     0.386350000000     0.173110000000     0.51895    
Cd17     Cd     0.665680000000     0.386530000000     0.839770000000     0.518937   
Cd18     Cd     0.869360000000     0.182850000000     0.839880000000     0.51899    
Cd19     Cd     0.869180000000     0.738260000000     0.506550000000     0.518959   
Cd20     Cd     0.813740000000     0.682670000000     0.173210000000     0.518948   
Cd21     Cd     0.665500000000     0.830910000000     0.506440000000     0.518927   
Cd22     Cd     0.721100000000     0.886350000000     0.173110000000     0.518975   
Cd23     Cd     0.665680000000     0.886530000000     0.839770000000     0.518956   
Cd24     Cd     0.869360000000     0.682850000000     0.839880000000     0.518959   
H1       H      0.286890000000     0.489370000000     0.853220000000     0.051518   
H2       H      0.202990000000     0.016410000000     0.852990000000     0.0510452  
H3       H      0.248160000000     0.080000000000     0.853310000000     0.0515139  
H4       H      0.332070000000     0.052960000000     0.852960000000     0.0510576  
H5       H      0.062830000000     0.265330000000     0.826340000000     0.0514045  
H6       H      0.035790000000     0.349240000000     0.826700000000     0.0510893  
H7       H      0.472190000000     0.304060000000     0.826440000000     0.0515147  
H8       H      0.499240000000     0.220160000000     0.826660000000     0.0510738  
H9       H      0.136620000000     0.359580000000     0.056630000000     0.0510136  
H10      H      0.235090000000     0.360340000000     0.029730000000     0.0506923  
H11      H      0.223370000000     0.359660000000     0.956210000000     0.0510339  
H12      H      0.125630000000     0.360370000000     0.983110000000     0.0506612  
H13      H      0.192370000000     0.415470000000     0.622870000000     0.0510249  
H14      H      0.191670000000     0.317030000000     0.649780000000     0.0507001  
H15      H      0.192450000000     0.328810000000     0.723300000000     0.050999   
H16      H      0.191690000000     0.426520000000     0.696390000000     0.050695   
H17      H      0.223210000000     0.415400000000     0.389970000000     0.0510397  
H18      H      0.125500000000     0.316920000000     0.363060000000     0.0506528  
H19      H      0.136540000000     0.328660000000     0.289540000000     0.0510285  
H20      H      0.234980000000     0.426400000000     0.316450000000     0.0506944  
H21      H      0.332110000000     0.079830000000     0.159770000000     0.0515187  
H22      H      0.221160000000     0.052790000000     0.159990000000     0.0510445  
H23      H      0.202740000000     0.489200000000     0.159680000000     0.0514978  
H24      H      0.313690000000     0.016240000000     0.160030000000     0.05106    
H25      H      0.332090000000     0.303870000000     0.186650000000     0.0515345  
H26      H      0.221140000000     0.219960000000     0.186280000000     0.051056   
H27      H      0.202720000000     0.265130000000     0.186540000000     0.0515045  
H28      H      0.313670000000     0.349040000000     0.186340000000     0.0510729  
H29      H      0.398300000000     0.209550000000     0.056790000000     0.051038   
H30      H      0.299860000000     0.208830000000     0.029870000000     0.0506847  
H31      H      0.311640000000     0.209620000000     0.956350000000     0.0510329  
H32      H      0.409350000000     0.208860000000     0.983270000000     0.0507098  
H33      H      0.343170000000     0.252260000000     0.649930000000     0.0506718  
H34      H      0.342400000000     0.153780000000     0.623020000000     0.0510346  
H35      H      0.343190000000     0.142790000000     0.696540000000     0.0506903  
H36      H      0.342490000000     0.240530000000     0.723440000000     0.0510443  
H37      H      0.035620000000     0.238330000000     0.519650000000     0.0511048  
H38      H      0.062660000000     0.349280000000     0.519890000000     0.0514004  
H39      H      0.499070000000     0.330860000000     0.519630000000     0.0510636  
H40      H      0.472030000000     0.219910000000     0.519980000000     0.0514884  
H41      H      0.247960000000     0.219890000000     0.493100000000     0.0515202  
H42      H      0.331870000000     0.330840000000     0.493330000000     0.051075   
H43      H      0.286700000000     0.349260000000     0.493010000000     0.0515319  
H44      H      0.202790000000     0.238310000000     0.493360000000     0.0510235  
H45      H      0.311480000000     0.153710000000     0.390110000000     0.051037   
H46      H      0.409220000000     0.252150000000     0.363210000000     0.0507068  
H47      H      0.398220000000     0.240370000000     0.289690000000     0.0510329  
H48      H      0.299750000000     0.142670000000     0.316580000000     0.0506851  
H49      H      0.286890000000     0.989370000000     0.853220000000     0.0515676  
H50      H      0.202990000000     0.516410000000     0.852990000000     0.0510299  
H51      H      0.248160000000     0.580000000000     0.853310000000     0.0515238  
H52      H      0.332070000000     0.552960000000     0.852960000000     0.051067   
H53      H      0.062830000000     0.765330000000     0.826340000000     0.0514035  
H54      H      0.035790000000     0.849240000000     0.826700000000     0.0510868  
H55      H      0.472190000000     0.804060000000     0.826440000000     0.0515171  
H56      H      0.499240000000     0.720160000000     0.826660000000     0.0510645  
H57      H      0.136620000000     0.859580000000     0.056630000000     0.0510098  
H58      H      0.235090000000     0.860340000000     0.029730000000     0.0506919  
H59      H      0.223370000000     0.859660000000     0.956210000000     0.0510367  
H60      H      0.125630000000     0.860370000000     0.983110000000     0.0506643  
H61      H      0.192370000000     0.915470000000     0.622870000000     0.0510287  
H62      H      0.191670000000     0.817030000000     0.649780000000     0.0506924  
H63      H      0.192450000000     0.828820000000     0.723300000000     0.0510096  
H64      H      0.191690000000     0.926520000000     0.696390000000     0.0506996  
H65      H      0.223210000000     0.915400000000     0.389970000000     0.0510452  
H66      H      0.125500000000     0.816930000000     0.363060000000     0.0506713  
H67      H      0.136540000000     0.828660000000     0.289540000000     0.0509931  
H68      H      0.234990000000     0.926400000000     0.316450000000     0.0507054  
H69      H      0.332110000000     0.579830000000     0.159770000000     0.05152    
H70      H      0.221160000000     0.552790000000     0.159990000000     0.0510547  
H71      H      0.202740000000     0.989200000000     0.159670000000     0.0515276  
H72      H      0.313690000000     0.516240000000     0.160040000000     0.0510732  
H73      H      0.332090000000     0.803870000000     0.186650000000     0.0515351  
H74      H      0.221140000000     0.719960000000     0.186280000000     0.0510319  
H75      H      0.202720000000     0.765140000000     0.186540000000     0.0515038  
H76      H      0.313670000000     0.849040000000     0.186340000000     0.0510767  
H77      H      0.398300000000     0.709540000000     0.056790000000     0.0510346  
H78      H      0.299860000000     0.708830000000     0.029870000000     0.0506868  
H79      H      0.311640000000     0.709620000000     0.956350000000     0.0510364  
H80      H      0.409350000000     0.708860000000     0.983270000000     0.0507155  
H81      H      0.343170000000     0.752260000000     0.649930000000     0.0507024  
H82      H      0.342410000000     0.653790000000     0.623020000000     0.0510462  
H83      H      0.343190000000     0.642790000000     0.696540000000     0.0506935  
H84      H      0.342490000000     0.740530000000     0.723440000000     0.0510374  
H85      H      0.035620000000     0.738330000000     0.519650000000     0.0510995  
H86      H      0.062660000000     0.849280000000     0.519890000000     0.0514111  
H87      H      0.499070000000     0.830860000000     0.519630000000     0.0510509  
H88      H      0.472030000000     0.719910000000     0.519980000000     0.0515091  
H89      H      0.247960000000     0.719890000000     0.493100000000     0.0515072  
H90      H      0.331870000000     0.830840000000     0.493330000000     0.0510816  
H91      H      0.286700000000     0.849260000000     0.493010000000     0.051528   
H92      H      0.202790000000     0.738310000000     0.493360000000     0.0510508  
H93      H      0.311480000000     0.653710000000     0.390110000000     0.0510387  
H94      H      0.409220000000     0.752150000000     0.363210000000     0.0507074  
H95      H      0.398220000000     0.740370000000     0.289690000000     0.0510345  
H96      H      0.299750000000     0.642670000000     0.316580000000     0.0506896  
H97      H      0.786900000000     0.489370000000     0.853220000000     0.0515276  
H98      H      0.702990000000     0.016410000000     0.852990000000     0.0510628  
H99      H      0.748160000000     0.080000000000     0.853310000000     0.0515257  
H100     H      0.832070000000     0.052960000000     0.852960000000     0.0510848  
H101     H      0.562830000000     0.265330000000     0.826340000000     0.0515305  
H102     H      0.535790000000     0.349240000000     0.826700000000     0.0510612  
H103     H      0.972190000000     0.304070000000     0.826440000000     0.0514746  
H104     H      0.999240000000     0.220160000000     0.826660000000     0.0515744  
H105     H      0.636620000000     0.359580000000     0.056630000000     0.0510419  
H106     H      0.735090000000     0.360340000000     0.029730000000     0.0507017  
H107     H      0.723370000000     0.359660000000     0.956210000000     0.0510504  
H108     H      0.625630000000     0.360370000000     0.983110000000     0.0506983  
H109     H      0.692370000000     0.415470000000     0.622870000000     0.0510432  
H110     H      0.691670000000     0.317030000000     0.649780000000     0.0507148  
H111     H      0.692450000000     0.328820000000     0.723300000000     0.0510281  
H112     H      0.691690000000     0.426520000000     0.696390000000     0.0507132  
H113     H      0.723210000000     0.415400000000     0.389970000000     0.0510509  
H114     H      0.625500000000     0.316920000000     0.363060000000     0.0506888  
H115     H      0.636540000000     0.328660000000     0.289540000000     0.0510606  
H116     H      0.734990000000     0.426400000000     0.316450000000     0.0507178  
H117     H      0.832110000000     0.079830000000     0.159770000000     0.0515477  
H118     H      0.721160000000     0.052790000000     0.159990000000     0.051064   
H119     H      0.702740000000     0.489200000000     0.159680000000     0.0515227  
H120     H      0.813690000000     0.016240000000     0.160030000000     0.051086   
H121     H      0.832090000000     0.303870000000     0.186650000000     0.0515559  
H122     H      0.721140000000     0.219960000000     0.186280000000     0.0510914  
H123     H      0.702720000000     0.265130000000     0.186540000000     0.0515209  
H124     H      0.813670000000     0.349040000000     0.186340000000     0.0511041  
H125     H      0.898300000000     0.209550000000     0.056790000000     0.0510804  
H126     H      0.799850000000     0.208830000000     0.029870000000     0.0506871  
H127     H      0.811640000000     0.209620000000     0.956350000000     0.051055   
H128     H      0.909350000000     0.208860000000     0.983270000000     0.0507639  
H129     H      0.843170000000     0.252260000000     0.649930000000     0.0506964  
H130     H      0.842400000000     0.153780000000     0.623020000000     0.0510583  
H131     H      0.843190000000     0.142790000000     0.696540000000     0.0507126  
H132     H      0.842490000000     0.240530000000     0.723440000000     0.0510668  
H133     H      0.535620000000     0.238330000000     0.519650000000     0.0510793  
H134     H      0.562660000000     0.349280000000     0.519880000000     0.0515282  
H135     H      0.999070000000     0.330860000000     0.519630000000     0.0515651  
H136     H      0.972030000000     0.219910000000     0.519980000000     0.0514594  
H137     H      0.747960000000     0.219890000000     0.493100000000     0.0515411  
H138     H      0.831870000000     0.330840000000     0.493330000000     0.0511032  
H139     H      0.786700000000     0.349260000000     0.493010000000     0.0515511  
H140     H      0.702790000000     0.238310000000     0.493360000000     0.0510449  
H141     H      0.811480000000     0.153710000000     0.390110000000     0.0510522  
H142     H      0.909220000000     0.252150000000     0.363210000000     0.0507592  
H143     H      0.898220000000     0.240380000000     0.289690000000     0.051075   
H144     H      0.799750000000     0.142670000000     0.316580000000     0.050699   
H145     H      0.786900000000     0.989370000000     0.853220000000     0.0515755  
H146     H      0.702990000000     0.516410000000     0.852990000000     0.0510786  
H147     H      0.748160000000     0.580000000000     0.853310000000     0.0515238  
H148     H      0.832070000000     0.552960000000     0.852960000000     0.0510971  
H149     H      0.562830000000     0.765330000000     0.826340000000     0.0515397  
H150     H      0.535790000000     0.849240000000     0.826700000000     0.0510612  
H151     H      0.972190000000     0.804060000000     0.826440000000     0.0514887  
H152     H      0.999240000000     0.720160000000     0.826660000000     0.0515746  
H153     H      0.636620000000     0.859580000000     0.056630000000     0.051045   
H154     H      0.735090000000     0.860340000000     0.029730000000     0.0507072  
H155     H      0.723370000000     0.859660000000     0.956210000000     0.0510529  
H156     H      0.625630000000     0.860370000000     0.983110000000     0.0507005  
H157     H      0.692370000000     0.915470000000     0.622870000000     0.0510455  
H158     H      0.691670000000     0.817030000000     0.649780000000     0.0507019  
H159     H      0.692450000000     0.828820000000     0.723300000000     0.0510483  
H160     H      0.691690000000     0.926520000000     0.696390000000     0.0507192  
H161     H      0.723210000000     0.915400000000     0.389970000000     0.0510608  
H162     H      0.625500000000     0.816930000000     0.363060000000     0.0507078  
H163     H      0.636540000000     0.828660000000     0.289540000000     0.0510282  
H164     H      0.734990000000     0.926400000000     0.316450000000     0.0507206  
H165     H      0.832110000000     0.579830000000     0.159770000000     0.0515481  
H166     H      0.721160000000     0.552790000000     0.159990000000     0.051074   
H167     H      0.702740000000     0.989200000000     0.159670000000     0.0515494  
H168     H      0.813690000000     0.516240000000     0.160040000000     0.051103   
H169     H      0.832090000000     0.803870000000     0.186650000000     0.0515637  
H170     H      0.721140000000     0.719960000000     0.186280000000     0.0510519  
H171     H      0.702720000000     0.765140000000     0.186540000000     0.0515259  
H172     H      0.813670000000     0.849040000000     0.186340000000     0.0511027  
H173     H      0.898300000000     0.709540000000     0.056790000000     0.05108    
H174     H      0.799860000000     0.708830000000     0.029870000000     0.0507004  
H175     H      0.811640000000     0.709620000000     0.956350000000     0.0510553  
H176     H      0.909350000000     0.708860000000     0.983270000000     0.0507697  
H177     H      0.843170000000     0.752260000000     0.649930000000     0.0506942  
H178     H      0.842410000000     0.653790000000     0.623020000000     0.0510521  
H179     H      0.843190000000     0.642790000000     0.696540000000     0.0507241  
H180     H      0.842490000000     0.740530000000     0.723440000000     0.0510753  
H181     H      0.535620000000     0.738330000000     0.519650000000     0.0510745  
H182     H      0.562660000000     0.849280000000     0.519880000000     0.0515382  
H183     H      0.999070000000     0.830860000000     0.519630000000     0.0515508  
H184     H      0.972030000000     0.719910000000     0.519980000000     0.0514801  
H185     H      0.747960000000     0.719890000000     0.493100000000     0.051528   
H186     H      0.831870000000     0.830840000000     0.493330000000     0.0511092  
H187     H      0.786700000000     0.849260000000     0.493010000000     0.0515468  
H188     H      0.702790000000     0.738310000000     0.493360000000     0.0510723  
H189     H      0.811480000000     0.653710000000     0.390110000000     0.051054   
H190     H      0.909220000000     0.752150000000     0.363210000000     0.0507581  
H191     H      0.898220000000     0.740370000000     0.289690000000     0.0510807  
H192     H      0.799750000000     0.642670000000     0.316580000000     0.0507039  
N1       N      0.241430000000     0.498030000000     0.852540000000    -0.159853   
N2       N      0.293630000000     0.071350000000     0.852570000000    -0.159859   
N3       N      0.054170000000     0.310800000000     0.827070000000    -0.159814   
N4       N      0.480850000000     0.258600000000     0.827120000000    -0.159845   
N5       N      0.187290000000     0.361240000000     0.048650000000    -0.160341   
N6       N      0.174350000000     0.361300000000     0.964190000000    -0.160314   
N7       N      0.190730000000     0.364810000000     0.630850000000    -0.160362   
N8       N      0.190790000000     0.377820000000     0.715320000000    -0.160361   
N9       N      0.174200000000     0.364720000000     0.381990000000    -0.160369   
N10      N      0.187200000000     0.377680000000     0.297520000000    -0.160342   
N11      N      0.277990000000     0.071170000000     0.160440000000    -0.159784   
N12      N      0.256870000000     0.497850000000     0.160420000000    -0.159874   
N13      N      0.277960000000     0.258400000000     0.185910000000    -0.159797   
N14      N      0.256840000000     0.310600000000     0.185870000000    -0.159832   
N15      N      0.347640000000     0.207900000000     0.048800000000    -0.160338   
N16      N      0.360650000000     0.207960000000     0.964330000000    -0.160396   
N17      N      0.344070000000     0.204460000000     0.631000000000    -0.160368   
N18      N      0.344130000000     0.191510000000     0.715470000000    -0.160382   
N19      N      0.054000000000     0.295160000000     0.519200000000    -0.159765   
N20      N      0.480680000000     0.274030000000     0.519240000000    -0.159889   
N21      N      0.293430000000     0.274010000000     0.493780000000    -0.159823   
N22      N      0.241230000000     0.295130000000     0.493740000000    -0.15983    
N23      N      0.360500000000     0.204370000000     0.382130000000    -0.16034    
N24      N      0.347550000000     0.191370000000     0.297660000000    -0.160348   
N25      N      0.241430000000     0.998020000000     0.852540000000    -0.159818   
N26      N      0.293630000000     0.571350000000     0.852570000000    -0.159881   
N27      N      0.054170000000     0.810800000000     0.827070000000    -0.159849   
N28      N      0.480850000000     0.758600000000     0.827120000000    -0.159863   
N29      N      0.187290000000     0.861240000000     0.048650000000    -0.160368   
N30      N      0.174350000000     0.861300000000     0.964190000000    -0.160312   
N31      N      0.190730000000     0.864810000000     0.630860000000    -0.160322   
N32      N      0.190790000000     0.877820000000     0.715320000000    -0.160369   
N33      N      0.174200000000     0.864720000000     0.381990000000    -0.160341   
N34      N      0.187200000000     0.877680000000     0.297520000000    -0.160385   
N35      N      0.277990000000     0.571170000000     0.160440000000    -0.159781   
N36      N      0.256860000000     0.997850000000     0.160410000000    -0.159823   
N37      N      0.277960000000     0.758400000000     0.185910000000    -0.159828   
N38      N      0.256840000000     0.810600000000     0.185870000000    -0.159845   
N39      N      0.347640000000     0.707900000000     0.048800000000    -0.160331   
N40      N      0.360650000000     0.707960000000     0.964330000000    -0.160378   
N41      N      0.344070000000     0.704460000000     0.631000000000    -0.160326   
N42      N      0.344130000000     0.691510000000     0.715470000000    -0.160365   
N43      N      0.054000000000     0.795160000000     0.519200000000    -0.159764   
N44      N      0.480680000000     0.774040000000     0.519240000000    -0.159901   
N45      N      0.293430000000     0.774010000000     0.493780000000    -0.159839   
N46      N      0.241230000000     0.795140000000     0.493740000000    -0.159863   
N47      N      0.360500000000     0.704370000000     0.382130000000    -0.16035    
N48      N      0.347550000000     0.691370000000     0.297660000000    -0.160347   
N49      N      0.741430000000     0.498030000000     0.852540000000    -0.159811   
N50      N      0.793630000000     0.071350000000     0.852570000000    -0.159885   
N51      N      0.554170000000     0.310800000000     0.827070000000    -0.159822   
N52      N      0.980850000000     0.258600000000     0.827120000000    -0.159607   
N53      N      0.687290000000     0.361240000000     0.048650000000    -0.160372   
N54      N      0.674350000000     0.361300000000     0.964190000000    -0.160307   
N55      N      0.690730000000     0.364810000000     0.630850000000    -0.160359   
N56      N      0.690790000000     0.377820000000     0.715320000000    -0.16035    
N57      N      0.674200000000     0.364720000000     0.381990000000    -0.160366   
N58      N      0.687200000000     0.377680000000     0.297520000000    -0.160342   
N59      N      0.777990000000     0.071170000000     0.160440000000    -0.159779   
N60      N      0.756870000000     0.497850000000     0.160420000000    -0.159835   
N61      N      0.777970000000     0.258400000000     0.185910000000    -0.159833   
N62      N      0.756840000000     0.310600000000     0.185870000000    -0.159829   
N63      N      0.847640000000     0.207900000000     0.048800000000    -0.160372   
N64      N      0.860650000000     0.207960000000     0.964330000000    -0.160367   
N65      N      0.844070000000     0.204460000000     0.631000000000    -0.160352   
N66      N      0.844130000000     0.191510000000     0.715470000000    -0.160376   
N67      N      0.554000000000     0.295160000000     0.519200000000    -0.159769   
N68      N      0.980680000000     0.274030000000     0.519240000000    -0.159645   
N69      N      0.793430000000     0.274010000000     0.493780000000    -0.159821   
N70      N      0.741230000000     0.295130000000     0.493740000000    -0.159825   
N71      N      0.860500000000     0.204370000000     0.382130000000    -0.160331   
N72      N      0.847550000000     0.191370000000     0.297660000000    -0.160344   
N73      N      0.741430000000     0.998020000000     0.852540000000    -0.159833   
N74      N      0.793630000000     0.571350000000     0.852570000000    -0.159883   
N75      N      0.554170000000     0.810800000000     0.827070000000    -0.15984    
N76      N      0.980850000000     0.758600000000     0.827120000000    -0.159613   
N77      N      0.687290000000     0.861240000000     0.048650000000    -0.160363   
N78      N      0.674350000000     0.861300000000     0.964190000000    -0.160307   
N79      N      0.690730000000     0.864810000000     0.630860000000    -0.160322   
N80      N      0.690790000000     0.877820000000     0.715320000000    -0.160328   
N81      N      0.674200000000     0.864720000000     0.381990000000    -0.160336   
N82      N      0.687200000000     0.877680000000     0.297520000000    -0.160379   
N83      N      0.777990000000     0.571170000000     0.160440000000    -0.159778   
N84      N      0.756860000000     0.997850000000     0.160410000000    -0.159818   
N85      N      0.777960000000     0.758400000000     0.185910000000    -0.159823   
N86      N      0.756840000000     0.810600000000     0.185870000000    -0.159841   
N87      N      0.847640000000     0.707900000000     0.048800000000    -0.160326   
N88      N      0.860650000000     0.707960000000     0.964330000000    -0.160336   
N89      N      0.844070000000     0.704460000000     0.631000000000    -0.160375   
N90      N      0.844130000000     0.691510000000     0.715470000000    -0.160344   
N91      N      0.554000000000     0.795160000000     0.519200000000    -0.159769   
N92      N      0.980680000000     0.774040000000     0.519240000000    -0.159658   
N93      N      0.793430000000     0.774010000000     0.493780000000    -0.159837   
N94      N      0.741230000000     0.795140000000     0.493740000000    -0.159859   
N95      N      0.860500000000     0.704370000000     0.382130000000    -0.160342   
N96      N      0.847550000000     0.691370000000     0.297660000000    -0.16034    
O1       O      0.433400000000     0.285990000000     0.513480000000    -0.23652    
O2       O      0.344020000000     0.191880000000     0.451300000000    -0.237216   
O3       O      0.352670000000     0.285980000000     0.499560000000    -0.236499   
O4       O      0.359470000000     0.245830000000     0.578440000000    -0.246508   
O5       O      0.347980000000     0.191920000000     0.561820000000    -0.237237   
O6       O      0.309530000000     0.230060000000     0.497010000000    -0.245068   
O7       O      0.420630000000     0.230080000000     0.516090000000    -0.24511    
O8       O      0.386460000000     0.245780000000     0.434660000000    -0.246482   
O9       O      0.266010000000     0.199160000000     0.180130000000    -0.236519   
O10      O      0.360120000000     0.203900000000     0.117980000000    -0.237228   
O11      O      0.266020000000     0.118450000000     0.166220000000    -0.236526   
O12      O      0.306170000000     0.165390000000     0.245100000000    -0.246434   
O13      O      0.360080000000     0.207820000000     0.228480000000    -0.237195   
O14      O      0.321940000000     0.131220000000     0.163670000000    -0.245088   
O15      O      0.321920000000     0.242310000000     0.182760000000    -0.245089   
O16      O      0.306220000000     0.192440000000     0.101320000000    -0.246392   
O17      O      0.101280000000     0.283190000000     0.513420000000    -0.236534   
O18      O      0.190650000000     0.377250000000     0.451170000000    -0.237262   
O19      O      0.181990000000     0.283180000000     0.499510000000    -0.236534   
O20      O      0.186730000000     0.377290000000     0.561680000000    -0.23733    
O21      O      0.175280000000     0.323400000000     0.578330000000    -0.246533   
O22      O      0.225140000000     0.339090000000     0.496900000000    -0.245089   
O23      O      0.114050000000     0.339110000000     0.515980000000    -0.245103   
O24      O      0.148220000000     0.323350000000     0.434540000000    -0.246554   
O25      O      0.268820000000     0.450570000000     0.166180000000    -0.236548   
O26      O      0.174710000000     0.361200000000     0.228350000000    -0.237267   
O27      O      0.268810000000     0.369840000000     0.180100000000    -0.236519   
O28      O      0.228660000000     0.376630000000     0.101210000000    -0.246468   
O29      O      0.174750000000     0.365160000000     0.117830000000    -0.237185   
O30      O      0.212890000000     0.326700000000     0.182650000000    -0.245087   
O31      O      0.212910000000     0.437810000000     0.163570000000    -0.24513    
O32      O      0.228610000000     0.403630000000     0.245000000000    -0.246545   
O33      O      0.101460000000     0.370040000000     0.832840000000    -0.236546   
O34      O      0.148390000000     0.376760000000     0.911660000000    -0.246464   
O35      O      0.182190000000     0.450750000000     0.846760000000    -0.236574   
O36      O      0.175390000000     0.403800000000     0.767870000000    -0.24655    
O37      O      0.186880000000     0.361380000000     0.784500000000    -0.237231   
O38      O      0.225330000000     0.437980000000     0.849320000000    -0.245188   
O39      O      0.114220000000     0.326890000000     0.830230000000    -0.24513    
O40      O      0.190830000000     0.365300000000     0.895010000000    -0.237139   
O41      O      0.433580000000     0.199360000000     0.832890000000    -0.236612   
O42      O      0.344210000000     0.204040000000     0.895150000000    -0.237251   
O43      O      0.352870000000     0.118630000000     0.846810000000    -0.236535   
O44      O      0.359580000000     0.165560000000     0.767990000000    -0.246547   
O45      O      0.348120000000     0.207990000000     0.784640000000    -0.237342   
O46      O      0.309720000000     0.131390000000     0.849420000000    -0.245114   
O47      O      0.420800000000     0.242500000000     0.830340000000    -0.245011   
O48      O      0.386630000000     0.192570000000     0.911780000000    -0.246607   
O49      O      0.433400000000     0.785990000000     0.513480000000    -0.236523   
O50      O      0.344030000000     0.691880000000     0.451300000000    -0.237253   
O51      O      0.352670000000     0.785980000000     0.499560000000    -0.236497   
O52      O      0.359460000000     0.745830000000     0.578440000000    -0.246471   
O53      O      0.347980000000     0.691920000000     0.561820000000    -0.237222   
O54      O      0.309530000000     0.730060000000     0.497010000000    -0.24507    
O55      O      0.420630000000     0.730080000000     0.516090000000    -0.245116   
O56      O      0.386460000000     0.745780000000     0.434660000000    -0.246494   
O57      O      0.266010000000     0.699160000000     0.180140000000    -0.236526   
O58      O      0.360120000000     0.703900000000     0.117980000000    -0.237171   
O59      O      0.266020000000     0.618450000000     0.166220000000    -0.236521   
O60      O      0.306170000000     0.665390000000     0.245100000000    -0.246429   
O61      O      0.360080000000     0.707820000000     0.228480000000    -0.237194   
O62      O      0.321940000000     0.631220000000     0.163670000000    -0.245087   
O63      O      0.321920000000     0.742310000000     0.182760000000    -0.245094   
O64      O      0.306220000000     0.692440000000     0.101320000000    -0.246487   
O65      O      0.101280000000     0.783190000000     0.513420000000    -0.236532   
O66      O      0.190650000000     0.877260000000     0.451170000000    -0.237197   
O67      O      0.181990000000     0.783180000000     0.499510000000    -0.236554   
O68      O      0.186730000000     0.877290000000     0.561680000000    -0.237307   
O69      O      0.175280000000     0.823400000000     0.578330000000    -0.246511   
O70      O      0.225140000000     0.839090000000     0.496900000000    -0.245109   
O71      O      0.114050000000     0.839110000000     0.515980000000    -0.2451     
O72      O      0.148220000000     0.823350000000     0.434540000000    -0.246537   
O73      O      0.268820000000     0.950570000000     0.166180000000    -0.236506   
O74      O      0.174720000000     0.861200000000     0.228350000000    -0.237343   
O75      O      0.268810000000     0.869840000000     0.180100000000    -0.236491   
O76      O      0.228660000000     0.876630000000     0.101210000000    -0.246485   
O77      O      0.174760000000     0.865160000000     0.117830000000    -0.237299   
O78      O      0.212890000000     0.826700000000     0.182650000000    -0.245075   
O79      O      0.212910000000     0.937800000000     0.163570000000    -0.24511    
O80      O      0.228610000000     0.903630000000     0.245000000000    -0.246556   
O81      O      0.101460000000     0.870030000000     0.832840000000    -0.236667   
O82      O      0.148390000000     0.876760000000     0.911660000000    -0.246458   
O83      O      0.182190000000     0.950750000000     0.846760000000    -0.236668   
O84      O      0.175390000000     0.903800000000     0.767870000000    -0.246556   
O85      O      0.186870000000     0.861380000000     0.784500000000    -0.237288   
O86      O      0.225330000000     0.937980000000     0.849320000000    -0.245136   
O87      O      0.114220000000     0.826890000000     0.830230000000    -0.245163   
O88      O      0.190830000000     0.865300000000     0.895010000000    -0.237138   
O89      O      0.433580000000     0.699360000000     0.832890000000    -0.236521   
O90      O      0.344210000000     0.704050000000     0.895150000000    -0.237189   
O91      O      0.352860000000     0.618630000000     0.846810000000    -0.236663   
O92      O      0.359580000000     0.665560000000     0.767990000000    -0.246514   
O93      O      0.348120000000     0.708000000000     0.784640000000    -0.237239   
O94      O      0.309720000000     0.631390000000     0.849420000000    -0.245162   
O95      O      0.420800000000     0.742500000000     0.830340000000    -0.245073   
O96      O      0.386630000000     0.692570000000     0.911780000000    -0.24659    
O97      O      0.933400000000     0.285990000000     0.513480000000    -0.236441   
O98      O      0.844020000000     0.191880000000     0.451300000000    -0.237201   
O99      O      0.852670000000     0.285980000000     0.499560000000    -0.236485   
O100     O      0.859460000000     0.245830000000     0.578440000000    -0.246467   
O101     O      0.847980000000     0.191920000000     0.561820000000    -0.237177   
O102     O      0.809520000000     0.230060000000     0.497010000000    -0.24508    
O103     O      0.920630000000     0.230080000000     0.516090000000    -0.245069   
O104     O      0.886460000000     0.245780000000     0.434660000000    -0.246447   
O105     O      0.766010000000     0.199160000000     0.180130000000    -0.236524   
O106     O      0.860120000000     0.203900000000     0.117980000000    -0.23723    
O107     O      0.766020000000     0.118450000000     0.166220000000    -0.236509   
O108     O      0.806170000000     0.165390000000     0.245100000000    -0.246423   
O109     O      0.860080000000     0.207820000000     0.228480000000    -0.237155   
O110     O      0.821940000000     0.131220000000     0.163670000000    -0.245063   
O111     O      0.821920000000     0.242310000000     0.182760000000    -0.245082   
O112     O      0.806230000000     0.192440000000     0.101320000000    -0.24651    
O113     O      0.601280000000     0.283190000000     0.513420000000    -0.236503   
O114     O      0.690650000000     0.377250000000     0.451170000000    -0.237245   
O115     O      0.681990000000     0.283180000000     0.499510000000    -0.236511   
O116     O      0.686730000000     0.377290000000     0.561680000000    -0.237312   
O117     O      0.675280000000     0.323400000000     0.578330000000    -0.246515   
O118     O      0.725140000000     0.339090000000     0.496900000000    -0.245077   
O119     O      0.614050000000     0.339110000000     0.515980000000    -0.245077   
O120     O      0.648220000000     0.323350000000     0.434540000000    -0.24653    
O121     O      0.768830000000     0.450570000000     0.166180000000    -0.236396   
O122     O      0.674720000000     0.361200000000     0.228350000000    -0.237296   
O123     O      0.768810000000     0.369840000000     0.180100000000    -0.236499   
O124     O      0.728660000000     0.376640000000     0.101210000000    -0.246516   
O125     O      0.674760000000     0.365160000000     0.117830000000    -0.237266   
O126     O      0.712890000000     0.326700000000     0.182650000000    -0.245063   
O127     O      0.712910000000     0.437810000000     0.163570000000    -0.245068   
O128     O      0.728610000000     0.403630000000     0.245000000000    -0.24655    
O129     O      0.601460000000     0.370040000000     0.832840000000    -0.236513   
O130     O      0.648390000000     0.376760000000     0.911660000000    -0.246438   
O131     O      0.682190000000     0.450750000000     0.846760000000    -0.236637   
O132     O      0.675390000000     0.403800000000     0.767870000000    -0.24653    
O133     O      0.686880000000     0.361380000000     0.784500000000    -0.237214   
O134     O      0.725330000000     0.437980000000     0.849320000000    -0.245112   
O135     O      0.614220000000     0.326890000000     0.830230000000    -0.245104   
O136     O      0.690830000000     0.365300000000     0.895010000000    -0.237124   
O137     O      0.933580000000     0.199360000000     0.832890000000    -0.236533   
O138     O      0.844210000000     0.204050000000     0.895150000000    -0.237172   
O139     O      0.852860000000     0.118630000000     0.846810000000    -0.236634   
O140     O      0.859580000000     0.165560000000     0.767990000000    -0.246518   
O141     O      0.848120000000     0.207990000000     0.784640000000    -0.23732    
O142     O      0.809720000000     0.131390000000     0.849420000000    -0.245151   
O143     O      0.920800000000     0.242500000000     0.830340000000    -0.244971   
O144     O      0.886630000000     0.192570000000     0.911780000000    -0.246555   
O145     O      0.933400000000     0.785990000000     0.513480000000    -0.23644    
O146     O      0.844030000000     0.691880000000     0.451300000000    -0.237237   
O147     O      0.852670000000     0.785980000000     0.499560000000    -0.236486   
O148     O      0.859470000000     0.745830000000     0.578440000000    -0.246483   
O149     O      0.847980000000     0.691920000000     0.561820000000    -0.237213   
O150     O      0.809520000000     0.730060000000     0.497010000000    -0.245084   
O151     O      0.920630000000     0.730080000000     0.516090000000    -0.245073   
O152     O      0.886460000000     0.745780000000     0.434660000000    -0.246459   
O153     O      0.766010000000     0.699160000000     0.180140000000    -0.236511   
O154     O      0.860120000000     0.703900000000     0.117980000000    -0.237132   
O155     O      0.766020000000     0.618450000000     0.166220000000    -0.236505   
O156     O      0.806170000000     0.665390000000     0.245100000000    -0.246417   
O157     O      0.860080000000     0.707820000000     0.228480000000    -0.237156   
O158     O      0.821940000000     0.631220000000     0.163670000000    -0.245064   
O159     O      0.821920000000     0.742310000000     0.182760000000    -0.24507    
O160     O      0.806220000000     0.692440000000     0.101320000000    -0.246475   
O161     O      0.601280000000     0.783190000000     0.513420000000    -0.236501   
O162     O      0.690650000000     0.877260000000     0.451170000000    -0.237181   
O163     O      0.681990000000     0.783180000000     0.499510000000    -0.236531   
O164     O      0.686730000000     0.877290000000     0.561680000000    -0.237289   
O165     O      0.675280000000     0.823400000000     0.578330000000    -0.246493   
O166     O      0.725140000000     0.839090000000     0.496900000000    -0.245098   
O167     O      0.614050000000     0.839110000000     0.515980000000    -0.245074   
O168     O      0.648220000000     0.823350000000     0.434540000000    -0.246512   
O169     O      0.768820000000     0.950570000000     0.166180000000    -0.236495   
O170     O      0.674720000000     0.861200000000     0.228350000000    -0.237297   
O171     O      0.768810000000     0.869840000000     0.180100000000    -0.236495   
O172     O      0.728660000000     0.876630000000     0.101210000000    -0.246479   
O173     O      0.674760000000     0.865160000000     0.117830000000    -0.237252   
O174     O      0.712890000000     0.826700000000     0.182650000000    -0.245066   
O175     O      0.712910000000     0.937800000000     0.163570000000    -0.245074   
O176     O      0.728610000000     0.903630000000     0.245000000000    -0.246544   
O177     O      0.601460000000     0.870030000000     0.832840000000    -0.236638   
O178     O      0.648390000000     0.876760000000     0.911660000000    -0.246433   
O179     O      0.682190000000     0.950750000000     0.846760000000    -0.236557   
O180     O      0.675390000000     0.903800000000     0.767870000000    -0.246524   
O181     O      0.686880000000     0.861380000000     0.784500000000    -0.237208   
O182     O      0.725330000000     0.937980000000     0.849320000000    -0.245185   
O183     O      0.614220000000     0.826890000000     0.830230000000    -0.245141   
O184     O      0.690830000000     0.865300000000     0.895010000000    -0.237119   
O185     O      0.933580000000     0.699360000000     0.832890000000    -0.236441   
O186     O      0.844210000000     0.704050000000     0.895150000000    -0.23713    
O187     O      0.852860000000     0.618630000000     0.846810000000    -0.236634   
O188     O      0.859580000000     0.665560000000     0.767990000000    -0.246487   
O189     O      0.848120000000     0.708000000000     0.784640000000    -0.237217   
O190     O      0.809720000000     0.631390000000     0.849420000000    -0.245155   
O191     O      0.920800000000     0.742500000000     0.830340000000    -0.245034   
O192     O      0.886640000000     0.692570000000     0.911780000000    -0.246425   


