data_structure

_audit_creation_method RASPA-1.0
_audit_creation_date 2023-5-23
_audit_author_name 'Poobodin Mano'

_cell_length_a    39.9261
_cell_length_b    38.9526
_cell_length_c    36.8837
_cell_angle_alpha 89.9999
_cell_angle_beta  90.0001
_cell_angle_gamma 120.009
_cell_volume      49672.8

_symmetry_cell_setting          triclinic
_symmetry_space_group_name_Hall 'P 1'
_symmetry_space_group_name_H-M  'P 1'
_symmetry_Int_Tables_number     1

_symmetry_equiv_pos_as_xyz 'x,y,z'

loop_
_atom_site_label
_atom_site_type_symbol
_atom_site_fract_x
_atom_site_fract_y
_atom_site_fract_z
_atom_site_charge
C1       C      0.614580000000     0.424540000000     0.471590000000     0.272201   
C2       C      0.524380000000     0.289170000000     0.457170000000     0.347653   
C3       C      0.495710000000     0.371810000000     0.530940000000     0.343163   
C4       C      0.503270000000     0.390880000000     0.405100000000     0.34982    
C5       C      0.621110000000     0.524090000000     0.479100000000     0.258594   
C6       C      0.753220000000     0.596100000000     0.443600000000     0.345696   
C7       C      0.672940000000     0.628270000000     0.386760000000     0.344937   
C8       C      0.682530000000     0.648910000000     0.514380000000     0.341751   
C9       C      0.380000000000     0.469770000000     0.223200000000     0.345587   
C10      C      0.512870000000     0.545280000000     0.189660000000     0.258439   
C11      C      0.462220000000     0.440600000000     0.281390000000     0.344744   
C12      C      0.454180000000     0.420870000000     0.153580000000     0.341917   
C13      C      0.612590000000     0.781080000000     0.212070000000     0.34797    
C14      C      0.523000000000     0.646490000000     0.194860000000     0.271333   
C15      C      0.642230000000     0.698940000000     0.137100000000     0.343178   
C16      C      0.633840000000     0.679050000000     0.262530000000     0.349715   
C17      C      0.253220000000     0.490540000000     0.224340000000     0.349143   
C18      C      0.229200000000     0.596090000000     0.213080000000     0.275368   
C19      C      0.148070000000     0.479180000000     0.149620000000     0.340604   
C20      C      0.139320000000     0.482890000000     0.275310000000     0.346231   
C21      C      0.136780000000     0.555230000000     0.172760000000     0.268693   
C22      C      0.192860000000     0.688310000000     0.204330000000     0.345704   
C23      C      0.069750000000     0.607990000000     0.131940000000     0.343439   
C24      C      0.078720000000     0.606780000000     0.259640000000     0.343207   
C25      C      0.935230000000     0.368940000000     0.468610000000     0.347761   
C26      C      0.002100000000     0.509080000000     0.471790000000     0.277615   
C27      C      0.058100000000     0.444120000000     0.526960000000     0.348236   
C28      C      0.048830000000     0.447310000000     0.397920000000     0.345438   
C29      C      0.876570000000     0.569850000000     0.437410000000     0.348968   
C30      C      0.894760000000     0.460930000000     0.441780000000     0.276086   
C31      C      0.988740000000     0.573120000000     0.382580000000     0.346118   
C32      C      0.979610000000     0.573520000000     0.509120000000     0.342939   
C33      C      0.661640000000     0.221830000000     0.436380000000     0.267295   
C34      C      0.785410000000     0.243640000000     0.461100000000     0.344508   
C35      C      0.688570000000     0.137500000000     0.519440000000     0.342333   
C36      C      0.681850000000     0.129060000000     0.391680000000     0.344921   
C37      C      0.519260000000     0.145010000000     0.456110000000     0.344073   
C38      C      0.601070000000     0.092780000000     0.480670000000     0.280052   
C39      C      0.484080000000     0.021560000000     0.524430000000     0.344906   
C40      C      0.492500000000     0.033210000000     0.395520000000     0.345019   
C41      C      0.469910000000     0.852120000000     0.217440000000     0.272873   
C42      C      0.339060000000     0.819250000000     0.215180000000     0.348574   
C43      C      0.441070000000     0.939290000000     0.273400000000     0.348996   
C44      C      0.433250000000     0.928780000000     0.147290000000     0.342328   
C45      C      0.612240000000     0.922380000000     0.212590000000     0.345641   
C46      C      0.523020000000     0.961840000000     0.184790000000     0.282555   
C47      C      0.632050000000     0.034010000000     0.269880000000     0.343834   
C48      C      0.639310000000     0.043800000000     0.142020000000     0.343676   
C49      C      0.628340000000     0.114400000000     0.237400000000     0.0250448  
C50      C      0.560010000000     0.079700000000     0.241530000000     0.0247737  
C51      C      0.562430000000     0.097140000000     0.275230000000     0.0192716  
C52      C      0.630770000000     0.131660000000     0.271210000000     0.0226142  
C53      C      0.440530000000     0.984790000000     0.359970000000     0.0348239  
C54      C      0.504080000000     0.016970000000     0.336650000000     0.0346701  
C55      C      0.491120000000     0.993140000000     0.305810000000     0.0301776  
C56      C      0.427500000000     0.960880000000     0.329030000000     0.0349272  
C57      C      0.462350000000     0.959730000000     0.553710000000     0.0324028  
C58      C      0.460000000000     0.011420000000     0.584830000000     0.0351328  
C59      C      0.447260000000     0.987940000000     0.116030000000     0.0341999  
C60      C      0.449610000000     0.936300000000     0.084820000000     0.0336363  
C61      C      0.678460000000     0.080070000000     0.551510000000     0.0322736  
C62      C      0.668170000000     0.127800000000     0.580940000000     0.0348823  
C63      C      0.655980000000     0.104230000000     0.112040000000     0.0345533  
C64      C      0.666030000000     0.056350000000     0.082580000000     0.0321436  
C65      C      0.631970000000     0.075680000000     0.358540000000     0.0324077  
C66      C      0.695810000000     0.108070000000     0.335890000000     0.0328182  
C67      C      0.683240000000     0.083870000000     0.305120000000     0.031593   
C68      C      0.619460000000     0.051460000000     0.327890000000     0.037575   
C69      C      0.562760000000     0.093230000000     0.600080000000     0.0219462  
C70      C      0.566900000000     0.042130000000     0.569280000000     0.0245654  
C71      C      0.553280000000     0.018310000000     0.600140000000     0.0242228  
C72      C      0.549310000000     0.069470000000     0.631000000000     0.0232431  
C73      C      0.890150000000     0.303820000000     0.448120000000     0.0353402  
C74      C      0.869690000000     0.337470000000     0.487520000000     0.0347347  
C75      C      0.831820000000     0.305890000000     0.485520000000     0.034892   
C76      C      0.852150000000     0.272100000000     0.446160000000     0.0351814  
C77      C      0.098940000000     0.561560000000     0.428510000000     0.0302351  
C78      C      0.119680000000     0.561530000000     0.488660000000     0.0353154  
C79      C      0.108360000000     0.588820000000     0.498640000000     0.0268703  
C80      C      0.087730000000     0.588950000000     0.438470000000     0.0266627  
C81      C      0.057190000000     0.574180000000     0.316330000000     0.0347405  
C82      C      0.037620000000     0.619350000000     0.297420000000     0.0348392  
C83      C      0.014830000000     0.610840000000     0.328600000000     0.0344787  
C84      C      0.034420000000     0.565630000000     0.347360000000     0.0296218  
C85      C      0.061400000000     0.623650000000     0.071440000000     0.0334095  
C86      C      0.008690000000     0.572160000000     0.102790000000     0.0348982  
C87      C      0.985910000000     0.563400000000     0.571690000000     0.0349335  
C88      C      0.038570000000     0.614890000000     0.540300000000     0.035334   
C89      C      0.257440000000     0.718830000000     0.225920000000     0.0355136  
C90      C      0.235750000000     0.757450000000     0.195560000000     0.035298   
C91      C      0.272820000000     0.790640000000     0.198330000000     0.0357269  
C92      C      0.294360000000     0.751920000000     0.228710000000     0.035624   
C93      C      0.115310000000     0.446430000000     0.330180000000     0.0352177  
C94      C      0.090590000000     0.486570000000     0.309020000000     0.0328649  
C95      C      0.067650000000     0.477500000000     0.339990000000     0.0346517  
C96      C      0.092270000000     0.437310000000     0.361210000000     0.0356038  
C97      C      0.142710000000     0.483740000000     0.085930000000     0.0316837  
C98      C      0.087580000000     0.440160000000     0.119990000000     0.0305315  
C99      C      0.064740000000     0.431160000000     0.588830000000     0.0342887  
C100     C      0.119940000000     0.474770000000     0.554850000000     0.0331804  
C101     C      0.054250000000     0.512860000000     0.102060000000     0.0246962  
C102     C      0.993480000000     0.478380000000     0.072660000000     0.0266331  
C103     C      0.976650000000     0.457880000000     0.104690000000     0.0220176  
C104     C      0.037380000000     0.492350000000     0.134100000000     0.0222983  
C105     C      0.585830000000     0.820090000000     0.232270000000     0.0356912  
C106     C      0.644190000000     0.850170000000     0.199070000000     0.0358431  
C107     C      0.644100000000     0.886030000000     0.199210000000     0.0357367  
C108     C      0.585780000000     0.855860000000     0.232460000000     0.0358686  
C109     C      0.348500000000     0.503860000000     0.244450000000     0.0357041  
C110     C      0.313560000000     0.445580000000     0.209770000000     0.0355222  
C111     C      0.281400000000     0.450880000000     0.210000000000     0.035942   
C112     C      0.316410000000     0.509110000000     0.244740000000     0.0360587  
C113     C      0.597770000000     0.593060000000     0.128510000000     0.0222603  
C114     C      0.619750000000     0.574620000000     0.076430000000     0.0235208  
C115     C      0.594720000000     0.581130000000     0.054840000000     0.0243254  
C116     C      0.572720000000     0.599540000000     0.106910000000     0.0204834  
C117     C      0.819250000000     0.617350000000     0.456400000000     0.0354787  
C118     C      0.782600000000     0.560920000000     0.419890000000     0.0355312  
C119     C      0.813800000000     0.554310000000     0.418300000000     0.0358171  
C120     C      0.850530000000     0.610650000000     0.454890000000     0.0357865  
C121     C      0.640380000000     0.614250000000     0.330180000000     0.036116   
C122     C      0.682020000000     0.680740000000     0.347440000000     0.0355333  
C123     C      0.672020000000     0.693620000000     0.316000000000     0.0360137  
C124     C      0.630540000000     0.627090000000     0.298750000000     0.0359285  
C125     C      0.694930000000     0.668890000000     0.576140000000     0.0343277  
C126     C      0.653310000000     0.682700000000     0.541600000000     0.0347387  
C127     C      0.642930000000     0.695280000000     0.072870000000     0.0354839  
C128     C      0.684460000000     0.681400000000     0.107480000000     0.0354484  
C129     C      0.489080000000     0.183200000000     0.468430000000     0.0350179  
C130     C      0.549710000000     0.212790000000     0.439070000000     0.0363822  
C131     C      0.551020000000     0.249250000000     0.439370000000     0.0348706  
C132     C      0.490370000000     0.219740000000     0.468680000000     0.0354593  
C133     C      0.465560000000     0.375760000000     0.351280000000     0.0358246  
C134     C      0.504610000000     0.442360000000     0.369560000000     0.0359582  
C135     C      0.494210000000     0.454940000000     0.338300000000     0.0359212  
C136     C      0.455020000000     0.388370000000     0.320000000000     0.0354807  
C137     C      0.452860000000     0.388470000000     0.560560000000     0.0352151  
C138     C      0.495350000000     0.375980000000     0.595150000000     0.0353066  
C139     C      0.484680000000     0.388340000000     0.126390000000     0.0347452  
C140     C      0.442100000000     0.400750000000     0.091860000000     0.0343666  
C141     C      0.515320000000     0.496560000000     0.591860000000     0.0234546  
C142     C      0.536660000000     0.478170000000     0.539320000000     0.0221208  
C143     C      0.562080000000     0.471830000000     0.560460000000     0.0203612  
C144     C      0.540720000000     0.490180000000     0.613000000000     0.0244993  
C145     C      0.614580000000     0.424540000000     0.971590000000     0.272249   
C146     C      0.524380000000     0.289170000000     0.957170000000     0.347654   
C147     C      0.495710000000     0.371810000000     0.030930000000     0.3431     
C148     C      0.503270000000     0.390880000000     0.905100000000     0.349922   
C149     C      0.621110000000     0.524090000000     0.979100000000     0.258633   
C150     C      0.753220000000     0.596100000000     0.943600000000     0.345703   
C151     C      0.672940000000     0.628280000000     0.886760000000     0.344899   
C152     C      0.682530000000     0.648910000000     0.014380000000     0.341527   
C153     C      0.380000000000     0.469770000000     0.723200000000     0.34559    
C154     C      0.512870000000     0.545280000000     0.689660000000     0.258441   
C155     C      0.462220000000     0.440600000000     0.781390000000     0.34478    
C156     C      0.454180000000     0.420870000000     0.653580000000     0.341957   
C157     C      0.612590000000     0.781080000000     0.712070000000     0.348132   
C158     C      0.523000000000     0.646490000000     0.694860000000     0.271336   
C159     C      0.642230000000     0.698950000000     0.637100000000     0.343204   
C160     C      0.633840000000     0.679050000000     0.762540000000     0.349686   
C161     C      0.253220000000     0.490540000000     0.724340000000     0.349144   
C162     C      0.229200000000     0.596090000000     0.713080000000     0.275262   
C163     C      0.148070000000     0.479190000000     0.649610000000     0.340545   
C164     C      0.139320000000     0.482890000000     0.775300000000     0.346217   
C165     C      0.136780000000     0.555240000000     0.672750000000     0.26864    
C166     C      0.192860000000     0.688320000000     0.704330000000     0.345654   
C167     C      0.069750000000     0.607990000000     0.631940000000     0.343518   
C168     C      0.078720000000     0.606780000000     0.759630000000     0.343128   
C169     C      0.935230000000     0.368940000000     0.968610000000     0.347771   
C170     C      0.002100000000     0.509080000000     0.971780000000     0.277686   
C171     C      0.058100000000     0.444120000000     0.026960000000     0.348164   
C172     C      0.048840000000     0.447310000000     0.897920000000     0.34523    
C173     C      0.876570000000     0.569850000000     0.937410000000     0.348964   
C174     C      0.894770000000     0.460930000000     0.941790000000     0.276115   
C175     C      0.988740000000     0.573120000000     0.882580000000     0.345973   
C176     C      0.979610000000     0.573530000000     0.009120000000     0.342711   
C177     C      0.661640000000     0.221830000000     0.936380000000     0.267304   
C178     C      0.785410000000     0.243640000000     0.961100000000     0.344519   
C179     C      0.688570000000     0.137500000000     0.019440000000     0.342191   
C180     C      0.681850000000     0.129060000000     0.891680000000     0.344922   
C181     C      0.519260000000     0.145010000000     0.956110000000     0.344033   
C182     C      0.601070000000     0.092780000000     0.980670000000     0.279972   
C183     C      0.484080000000     0.021560000000     0.024430000000     0.344767   
C184     C      0.492500000000     0.033210000000     0.895520000000     0.345189   
C185     C      0.469910000000     0.852120000000     0.717440000000     0.272874   
C186     C      0.339060000000     0.819260000000     0.715190000000     0.348528   
C187     C      0.441080000000     0.939290000000     0.773400000000     0.348956   
C188     C      0.433250000000     0.928780000000     0.647290000000     0.342331   
C189     C      0.612240000000     0.922380000000     0.712590000000     0.345642   
C190     C      0.523020000000     0.961840000000     0.684790000000     0.282496   
C191     C      0.632050000000     0.034010000000     0.769880000000     0.343833   
C192     C      0.639310000000     0.043800000000     0.642020000000     0.343681   
C193     C      0.628340000000     0.114400000000     0.737400000000     0.0250461  
C194     C      0.560010000000     0.079700000000     0.741530000000     0.0247759  
C195     C      0.562430000000     0.097140000000     0.775230000000     0.0192733  
C196     C      0.630770000000     0.131660000000     0.771210000000     0.022615   
C197     C      0.440530000000     0.984790000000     0.859960000000     0.0348434  
C198     C      0.504080000000     0.016970000000     0.836650000000     0.0346768  
C199     C      0.491120000000     0.993130000000     0.805810000000     0.0301729  
C200     C      0.427500000000     0.960890000000     0.829030000000     0.0349076  
C201     C      0.462350000000     0.959730000000     0.053710000000     0.032383   
C202     C      0.460000000000     0.011420000000     0.084830000000     0.035119   
C203     C      0.447260000000     0.987940000000     0.616030000000     0.0342025  
C204     C      0.449610000000     0.936300000000     0.584820000000     0.0336405  
C205     C      0.678460000000     0.080070000000     0.051510000000     0.0322318  
C206     C      0.668170000000     0.127800000000     0.080940000000     0.0348977  
C207     C      0.655990000000     0.104230000000     0.612040000000     0.0346064  
C208     C      0.666030000000     0.056350000000     0.582580000000     0.0321362  
C209     C      0.631970000000     0.075680000000     0.858540000000     0.0324068  
C210     C      0.695810000000     0.108070000000     0.835890000000     0.0328208  
C211     C      0.683240000000     0.083870000000     0.805120000000     0.0315942  
C212     C      0.619460000000     0.051460000000     0.827890000000     0.037583   
C213     C      0.562760000000     0.093230000000     0.100080000000     0.0219415  
C214     C      0.566900000000     0.042130000000     0.069280000000     0.0245617  
C215     C      0.553280000000     0.018310000000     0.100140000000     0.0242161  
C216     C      0.549310000000     0.069470000000     0.131000000000     0.0232411  
C217     C      0.890150000000     0.303820000000     0.948120000000     0.0353616  
C218     C      0.869690000000     0.337470000000     0.987520000000     0.034844   
C219     C      0.831820000000     0.305890000000     0.985520000000     0.0349995  
C220     C      0.852150000000     0.272100000000     0.946160000000     0.0351693  
C221     C      0.098940000000     0.561560000000     0.928500000000     0.030239   
C222     C      0.119680000000     0.561530000000     0.988650000000     0.0354181  
C223     C      0.108360000000     0.588820000000     0.998630000000     0.0269872  
C224     C      0.087730000000     0.588950000000     0.938460000000     0.0266504  
C225     C      0.057180000000     0.574180000000     0.816330000000     0.0347699  
C226     C      0.037620000000     0.619350000000     0.797420000000     0.034766   
C227     C      0.014830000000     0.610830000000     0.828600000000     0.0346088  
C228     C      0.034410000000     0.565630000000     0.847350000000     0.0296175  
C229     C      0.061390000000     0.623660000000     0.571440000000     0.0333491  
C230     C      0.008690000000     0.572160000000     0.602790000000     0.034952   
C231     C      0.985910000000     0.563410000000     0.071690000000     0.0349632  
C232     C      0.038580000000     0.614890000000     0.040300000000     0.0352511  
C233     C      0.257440000000     0.718830000000     0.725920000000     0.0354503  
C234     C      0.235760000000     0.757450000000     0.695560000000     0.0354195  
C235     C      0.272820000000     0.790640000000     0.698330000000     0.0356599  
C236     C      0.294360000000     0.751920000000     0.728710000000     0.0356435  
C237     C      0.115310000000     0.446440000000     0.830180000000     0.0353361  
C238     C      0.090580000000     0.486560000000     0.809020000000     0.032757   
C239     C      0.067650000000     0.477490000000     0.839990000000     0.0347304  
C240     C      0.092270000000     0.437310000000     0.861210000000     0.0355412  
C241     C      0.142710000000     0.483740000000     0.585930000000     0.0316996  
C242     C      0.087580000000     0.440150000000     0.619980000000     0.0305711  
C243     C      0.064740000000     0.431160000000     0.088830000000     0.0343094  
C244     C      0.119940000000     0.474760000000     0.054850000000     0.0331916  
C245     C      0.054250000000     0.512860000000     0.602060000000     0.0247418  
C246     C      0.993490000000     0.478370000000     0.572670000000     0.0267049  
C247     C      0.976650000000     0.457870000000     0.604700000000     0.0220234  
C248     C      0.037380000000     0.492350000000     0.634110000000     0.0222646  
C249     C      0.585830000000     0.820090000000     0.732270000000     0.0357002  
C250     C      0.644190000000     0.850170000000     0.699070000000     0.0358575  
C251     C      0.644100000000     0.886030000000     0.699210000000     0.0357363  
C252     C      0.585780000000     0.855860000000     0.732460000000     0.0358689  
C253     C      0.348500000000     0.503860000000     0.744450000000     0.035716   
C254     C      0.313560000000     0.445580000000     0.709770000000     0.0355425  
C255     C      0.281400000000     0.450880000000     0.710000000000     0.0359383  
C256     C      0.316410000000     0.509110000000     0.744740000000     0.0360452  
C257     C      0.597770000000     0.593060000000     0.628510000000     0.0222632  
C258     C      0.619740000000     0.574620000000     0.576430000000     0.0235569  
C259     C      0.594720000000     0.581130000000     0.554840000000     0.0243087  
C260     C      0.572720000000     0.599540000000     0.606910000000     0.0204941  
C261     C      0.819250000000     0.617350000000     0.956400000000     0.0355158  
C262     C      0.782600000000     0.560920000000     0.919890000000     0.0355568  
C263     C      0.813800000000     0.554310000000     0.918300000000     0.0358112  
C264     C      0.850530000000     0.610650000000     0.954900000000     0.035742   
C265     C      0.640380000000     0.614250000000     0.830180000000     0.0361302  
C266     C      0.682020000000     0.680740000000     0.847440000000     0.0355232  
C267     C      0.672020000000     0.693620000000     0.816000000000     0.0360505  
C268     C      0.630540000000     0.627090000000     0.798750000000     0.0359345  
C269     C      0.694930000000     0.668890000000     0.076140000000     0.0342863  
C270     C      0.653320000000     0.682700000000     0.041600000000     0.0348423  
C271     C      0.642930000000     0.695280000000     0.572870000000     0.0355153  
C272     C      0.684460000000     0.681400000000     0.607480000000     0.0354431  
C273     C      0.489080000000     0.183200000000     0.968430000000     0.0351119  
C274     C      0.549710000000     0.212790000000     0.939070000000     0.0363145  
C275     C      0.551020000000     0.249250000000     0.939370000000     0.0348954  
C276     C      0.490370000000     0.219740000000     0.968680000000     0.0354355  
C277     C      0.465560000000     0.375760000000     0.851280000000     0.035875   
C278     C      0.504610000000     0.442360000000     0.869560000000     0.035962   
C279     C      0.494210000000     0.454940000000     0.838300000000     0.0359332  
C280     C      0.455020000000     0.388360000000     0.820000000000     0.0353972  
C281     C      0.452860000000     0.388470000000     0.060560000000     0.035236   
C282     C      0.495350000000     0.375990000000     0.095150000000     0.0353166  
C283     C      0.484670000000     0.388330000000     0.626400000000     0.0347336  
C284     C      0.442100000000     0.400740000000     0.591860000000     0.0344613  
C285     C      0.515320000000     0.496570000000     0.091860000000     0.0234373  
C286     C      0.536660000000     0.478170000000     0.039320000000     0.0220848  
C287     C      0.562080000000     0.471830000000     0.060470000000     0.0204141  
C288     C      0.540720000000     0.490180000000     0.113010000000     0.0244995  
Cd1      Cd     0.533020000000     0.367130000000     0.465580000000     0.509902   
Cd2      Cd     0.683900000000     0.600380000000     0.455760000000     0.510196   
Cd3      Cd     0.450910000000     0.468190000000     0.212350000000     0.510152   
Cd4      Cd     0.604550000000     0.703530000000     0.202250000000     0.509933   
Cd5      Cd     0.192870000000     0.510460000000     0.215390000000     0.51033    
Cd6      Cd     0.119690000000     0.616560000000     0.192330000000     0.510431   
Cd7      Cd     0.010460000000     0.439890000000     0.466210000000     0.510595   
Cd8      Cd     0.935040000000     0.546740000000     0.442670000000     0.510236   
Cd9      Cd     0.705200000000     0.182680000000     0.452800000000     0.510642   
Cd10     Cd     0.522880000000     0.073180000000     0.463690000000     0.513609   
Cd11     Cd     0.418390000000     0.884140000000     0.213700000000     0.509885   
Cd12     Cd     0.603180000000     0.990840000000     0.202730000000     0.512512   
Cd13     Cd     0.533020000000     0.367130000000     0.965580000000     0.509938   
Cd14     Cd     0.683910000000     0.600380000000     0.955760000000     0.510214   
Cd15     Cd     0.450910000000     0.468190000000     0.712340000000     0.51014    
Cd16     Cd     0.604550000000     0.703530000000     0.702260000000     0.50994    
Cd17     Cd     0.192870000000     0.510460000000     0.715390000000     0.510324   
Cd18     Cd     0.119690000000     0.616560000000     0.692330000000     0.51043    
Cd19     Cd     0.010460000000     0.439890000000     0.966210000000     0.510637   
Cd20     Cd     0.935040000000     0.546730000000     0.942670000000     0.510256   
Cd21     Cd     0.705200000000     0.182680000000     0.952800000000     0.510674   
Cd22     Cd     0.522880000000     0.073190000000     0.963690000000     0.513646   
Cd23     Cd     0.418390000000     0.884150000000     0.713700000000     0.509898   
Cd24     Cd     0.603180000000     0.990840000000     0.702720000000     0.512501   
H1       H      0.654300000000     0.121130000000     0.222580000000     0.0500225  
H2       H      0.532140000000     0.059210000000     0.229900000000     0.0496269  
H3       H      0.536470000000     0.090460000000     0.290010000000     0.0428873  
H4       H      0.658640000000     0.151940000000     0.282950000000     0.0454359  
H5       H      0.419600000000     0.980350000000     0.380830000000     0.0504765  
H6       H      0.534580000000     0.038730000000     0.338520000000     0.0433656  
H7       H      0.512240000000     0.997470000000     0.285170000000     0.0585296  
H8       H      0.397020000000     0.938940000000     0.327180000000     0.0505831  
H9       H      0.468200000000     0.947410000000     0.529780000000     0.0501118  
H10      H      0.464090000000     0.041090000000     0.586120000000     0.0476403  
H11      H      0.441940000000     0.000380000000     0.140170000000     0.0479667  
H12      H      0.446120000000     0.906870000000     0.083570000000     0.0526737  
H13      H      0.686910000000     0.069270000000     0.528140000000     0.0497447  
H14      H      0.668320000000     0.155710000000     0.581480000000     0.0511529  
H15      H      0.647160000000     0.114900000000     0.135250000000     0.0458462  
H16      H      0.665340000000     0.028170000000     0.081940000000     0.0498805  
H17      H      0.610610000000     0.071400000000     0.378890000000     0.0627226  
H18      H      0.726230000000     0.130160000000     0.337890000000     0.0501049  
H19      H      0.704420000000     0.088310000000     0.284530000000     0.0480881  
H20      H      0.589050000000     0.029430000000     0.325890000000     0.0461245  
H21      H      0.566470000000     0.122700000000     0.600050000000     0.0482474  
H22      H      0.573860000000     0.031380000000     0.545020000000     0.0478683  
H23      H      0.549500000000     0.988810000000     0.600120000000     0.051763   
H24      H      0.542380000000     0.080210000000     0.655280000000     0.0437795  
H25      H      0.912300000000     0.301890000000     0.432760000000     0.050498   
H26      H      0.875160000000     0.362730000000     0.504140000000     0.0496917  
H27      H      0.809740000000     0.308130000000     0.500720000000     0.0512614  
H28      H      0.846450000000     0.246880000000     0.429380000000     0.051073   
H29      H      0.095190000000     0.550820000000     0.400920000000     0.0436632  
H30      H      0.132220000000     0.550770000000     0.508450000000     0.0458811  
H31      H      0.111980000000     0.599420000000     0.526270000000     0.0444147  
H32      H      0.075170000000     0.599760000000     0.418740000000     0.0477384  
H33      H      0.073490000000     0.559030000000     0.312700000000     0.0428988  
H34      H      0.037910000000     0.640630000000     0.278290000000     0.0505043  
H35      H      0.998430000000     0.625890000000     0.332330000000     0.0506164  
H36      H      0.033960000000     0.544070000000     0.366250000000     0.0488031  
H37      H      0.091180000000     0.647550000000     0.070040000000     0.0488064  
H38      H      0.995710000000     0.554250000000     0.126770000000     0.049765   
H39      H      0.956310000000     0.539120000000     0.573010000000     0.0487971  
H40      H      0.051590000000     0.632460000000     0.516170000000     0.0512931  
H41      H      0.252790000000     0.691050000000     0.237150000000     0.050158   
H42      H      0.213460000000     0.760890000000     0.182120000000     0.0509313  
H43      H      0.277700000000     0.818430000000     0.186910000000     0.0504167  
H44      H      0.316620000000     0.748240000000     0.241960000000     0.0521168  
H45      H      0.133870000000     0.433660000000     0.327450000000     0.0508335  
H46      H      0.088960000000     0.506190000000     0.289130000000     0.0575576  
H47      H      0.049270000000     0.490470000000     0.342700000000     0.0428126  
H48      H      0.093990000000     0.417900000000     0.381270000000     0.0509036  
H49      H      0.173370000000     0.504860000000     0.083500000000     0.051827   
H50      H      0.073530000000     0.426090000000     0.145250000000     0.0498253  
H51      H      0.033960000000     0.410570000000     0.591270000000     0.0493418  
H52      H      0.134000000000     0.489270000000     0.529730000000     0.0470535  
H53      H      0.084800000000     0.534420000000     0.101000000000     0.047427   
H54      H      0.976100000000     0.472880000000     0.048560000000     0.0571994  
H55      H      0.946110000000     0.436270000000     0.105690000000     0.0469817  
H56      H      0.054630000000     0.497660000000     0.158240000000     0.0549739  
H57      H      0.562100000000     0.794780000000     0.245570000000     0.0524403  
H58      H      0.667710000000     0.849160000000     0.185390000000     0.0507935  
H59      H      0.667560000000     0.911310000000     0.185620000000     0.0511332  
H60      H      0.561970000000     0.856610000000     0.245850000000     0.051204   
H61      H      0.374440000000     0.525690000000     0.258310000000     0.0523952  
H62      H      0.311260000000     0.420180000000     0.195440000000     0.0511744  
H63      H      0.255530000000     0.429370000000     0.195850000000     0.0506975  
H64      H      0.318970000000     0.534760000000     0.258820000000     0.0519639  
H65      H      0.599000000000     0.597860000000     0.157480000000     0.0507744  
H66      H      0.638230000000     0.564800000000     0.064390000000     0.0524045  
H67      H      0.593550000000     0.576420000000     0.025870000000     0.0519746  
H68      H      0.554220000000     0.609310000000     0.118930000000     0.0563068  
H69      H      0.822540000000     0.642490000000     0.471940000000     0.0511423  
H70      H      0.756290000000     0.540360000000     0.405730000000     0.0523315  
H71      H      0.810220000000     0.528920000000     0.402990000000     0.0521286  
H72      H      0.876780000000     0.630880000000     0.469300000000     0.0505115  
H73      H      0.627000000000     0.582570000000     0.334690000000     0.0521531  
H74      H      0.702360000000     0.702950000000     0.366040000000     0.050987   
H75      H      0.685060000000     0.725260000000     0.311540000000     0.0507389  
H76      H      0.609970000000     0.604770000000     0.280360000000     0.0539187  
H77      H      0.715200000000     0.658190000000     0.578750000000     0.0503976  
H78      H      0.639900000000     0.683280000000     0.516210000000     0.05105    
H79      H      0.621970000000     0.705110000000     0.070330000000     0.0519395  
H80      H      0.697130000000     0.679950000000     0.133020000000     0.0501198  
H81      H      0.464130000000     0.157880000000     0.480360000000     0.050636   
H82      H      0.573910000000     0.211520000000     0.427180000000     0.0499599  
H83      H      0.576170000000     0.274570000000     0.427680000000     0.0515865  
H84      H      0.466370000000     0.221190000000     0.480810000000     0.0503249  
H85      H      0.453690000000     0.344190000000     0.355270000000     0.0504592  
H86      H      0.524390000000     0.464810000000     0.388320000000     0.0537169  
H87      H      0.506410000000     0.486550000000     0.334250000000     0.0521733  
H88      H      0.435480000000     0.366020000000     0.301040000000     0.0507473  
H89      H      0.439880000000     0.389430000000     0.535040000000     0.0500579  
H90      H      0.516800000000     0.366810000000     0.597690000000     0.0513207  
H91      H      0.498350000000     0.388230000000     0.151760000000     0.0506083  
H92      H      0.421310000000     0.410780000000     0.089240000000     0.0504611  
H93      H      0.496940000000     0.506300000000     0.604260000000     0.052669   
H94      H      0.535020000000     0.473330000000     0.510340000000     0.0508097  
H95      H      0.580460000000     0.462080000000     0.548090000000     0.0560769  
H96      H      0.542290000000     0.494920000000     0.641990000000     0.0516826  
H97      H      0.654300000000     0.121130000000     0.722580000000     0.0500246  
H98      H      0.532140000000     0.059210000000     0.729900000000     0.049631   
H99      H      0.536470000000     0.090460000000     0.790010000000     0.0428914  
H100     H      0.658640000000     0.151940000000     0.782950000000     0.0454372  
H101     H      0.419600000000     0.980350000000     0.880830000000     0.0504936  
H102     H      0.534580000000     0.038730000000     0.838520000000     0.0433648  
H103     H      0.512240000000     0.997470000000     0.785180000000     0.0585192  
H104     H      0.397020000000     0.938950000000     0.827180000000     0.0505924  
H105     H      0.468200000000     0.947410000000     0.029780000000     0.0500815  
H106     H      0.464090000000     0.041090000000     0.086120000000     0.0476262  
H107     H      0.441940000000     0.000380000000     0.640170000000     0.0479728  
H108     H      0.446120000000     0.906870000000     0.583570000000     0.052687   
H109     H      0.686910000000     0.069280000000     0.028140000000     0.0497238  
H110     H      0.668320000000     0.155710000000     0.081480000000     0.0511362  
H111     H      0.647160000000     0.114900000000     0.635250000000     0.0458356  
H112     H      0.665340000000     0.028170000000     0.581940000000     0.0498939  
H113     H      0.610610000000     0.071400000000     0.878890000000     0.0627263  
H114     H      0.726230000000     0.130160000000     0.837890000000     0.0501091  
H115     H      0.704420000000     0.088320000000     0.784530000000     0.0480872  
H116     H      0.589050000000     0.029430000000     0.825900000000     0.0461182  
H117     H      0.566470000000     0.122700000000     0.100050000000     0.0482299  
H118     H      0.573860000000     0.031380000000     0.045020000000     0.0478408  
H119     H      0.549490000000     0.988810000000     0.100110000000     0.0517508  
H120     H      0.542380000000     0.080210000000     0.155280000000     0.0437758  
H121     H      0.912310000000     0.301890000000     0.932770000000     0.0505086  
H122     H      0.875160000000     0.362730000000     0.004140000000     0.0495756  
H123     H      0.809740000000     0.308130000000     0.000720000000     0.0511446  
H124     H      0.846450000000     0.246880000000     0.929390000000     0.0510854  
H125     H      0.095190000000     0.550810000000     0.900910000000     0.0436628  
H126     H      0.132220000000     0.550770000000     0.008440000000     0.0457799  
H127     H      0.111990000000     0.599420000000     0.026260000000     0.0443147  
H128     H      0.075170000000     0.599750000000     0.918730000000     0.0477393  
H129     H      0.073490000000     0.559020000000     0.812690000000     0.0429048  
H130     H      0.037920000000     0.640640000000     0.778290000000     0.0505329  
H131     H      0.998440000000     0.625890000000     0.832330000000     0.0505849  
H132     H      0.033960000000     0.544070000000     0.866250000000     0.0487996  
H133     H      0.091170000000     0.647560000000     0.570050000000     0.0488409  
H134     H      0.995710000000     0.554240000000     0.626760000000     0.0497528  
H135     H      0.956310000000     0.539130000000     0.073010000000     0.0487791  
H136     H      0.051600000000     0.632460000000     0.016160000000     0.0512707  
H137     H      0.252790000000     0.691050000000     0.737150000000     0.0501796  
H138     H      0.213460000000     0.760890000000     0.682120000000     0.0509113  
H139     H      0.277700000000     0.818430000000     0.686910000000     0.0504416  
H140     H      0.316620000000     0.748240000000     0.741960000000     0.0521105  
H141     H      0.133870000000     0.433660000000     0.827450000000     0.0508159  
H142     H      0.088950000000     0.506180000000     0.789130000000     0.057584   
H143     H      0.049270000000     0.490460000000     0.842700000000     0.0427889  
H144     H      0.093990000000     0.417900000000     0.881270000000     0.0509297  
H145     H      0.173370000000     0.504860000000     0.583500000000     0.0518314  
H146     H      0.073530000000     0.426080000000     0.645250000000     0.0498225  
H147     H      0.033960000000     0.410580000000     0.091280000000     0.049325   
H148     H      0.134000000000     0.489270000000     0.029730000000     0.0470198  
H149     H      0.084810000000     0.534420000000     0.601000000000     0.0474156  
H150     H      0.976100000000     0.472870000000     0.548560000000     0.0572126  
H151     H      0.946110000000     0.436260000000     0.605690000000     0.0469868  
H152     H      0.054630000000     0.497660000000     0.658240000000     0.0549766  
H153     H      0.562100000000     0.794780000000     0.745570000000     0.0524411  
H154     H      0.667710000000     0.849160000000     0.685390000000     0.0507988  
H155     H      0.667560000000     0.911310000000     0.685620000000     0.0511404  
H156     H      0.561970000000     0.856610000000     0.745850000000     0.0512074  
H157     H      0.374440000000     0.525690000000     0.758310000000     0.0523983  
H158     H      0.311260000000     0.420180000000     0.695430000000     0.0511771  
H159     H      0.255530000000     0.429370000000     0.695850000000     0.0507061  
H160     H      0.318970000000     0.534760000000     0.758810000000     0.0519738  
H161     H      0.599000000000     0.597860000000     0.657480000000     0.0507778  
H162     H      0.638230000000     0.564800000000     0.564390000000     0.05242    
H163     H      0.593550000000     0.576420000000     0.525870000000     0.0520133  
H164     H      0.554210000000     0.609310000000     0.618920000000     0.0563169  
H165     H      0.822540000000     0.642490000000     0.971940000000     0.0511537  
H166     H      0.756290000000     0.540350000000     0.905730000000     0.0523256  
H167     H      0.810220000000     0.528920000000     0.902990000000     0.0521351  
H168     H      0.876780000000     0.630880000000     0.969300000000     0.0505433  
H169     H      0.627000000000     0.582570000000     0.834690000000     0.0521515  
H170     H      0.702360000000     0.702950000000     0.866040000000     0.0509973  
H171     H      0.685060000000     0.725260000000     0.811540000000     0.0507299  
H172     H      0.609970000000     0.604770000000     0.780360000000     0.0539194  
H173     H      0.715200000000     0.658190000000     0.078750000000     0.0503942  
H174     H      0.639900000000     0.683280000000     0.016210000000     0.050988   
H175     H      0.621970000000     0.705100000000     0.570330000000     0.051942   
H176     H      0.697130000000     0.679950000000     0.633020000000     0.0501285  
H177     H      0.464130000000     0.157880000000     0.980360000000     0.0506325  
H178     H      0.573910000000     0.211530000000     0.927180000000     0.0499718  
H179     H      0.576170000000     0.274570000000     0.927690000000     0.0515882  
H180     H      0.466370000000     0.221190000000     0.980810000000     0.0503511  
H181     H      0.453690000000     0.344190000000     0.855270000000     0.0504565  
H182     H      0.524390000000     0.464810000000     0.888320000000     0.0537187  
H183     H      0.506410000000     0.486560000000     0.834250000000     0.0521802  
H184     H      0.435480000000     0.366020000000     0.801040000000     0.0507801  
H185     H      0.439880000000     0.389430000000     0.035040000000     0.0500214  
H186     H      0.516800000000     0.366810000000     0.097690000000     0.0513125  
H187     H      0.498360000000     0.388230000000     0.651760000000     0.0506094  
H188     H      0.421310000000     0.410780000000     0.589240000000     0.0504588  
H189     H      0.496940000000     0.506300000000     0.104260000000     0.0526677  
H190     H      0.535020000000     0.473330000000     0.010340000000     0.0507759  
H191     H      0.580460000000     0.462080000000     0.048100000000     0.0560288  
H192     H      0.542290000000     0.494920000000     0.142000000000     0.0516842  
N1       N      0.593010000000     0.088750000000     0.223330000000    -0.0920744  
N2       N      0.597760000000     0.122670000000     0.289380000000    -0.099297   
N3       N      0.478950000000     0.012110000000     0.364020000000    -0.162004   
N4       N      0.453020000000     0.964540000000     0.302440000000    -0.160426   
N5       N      0.468360000000     0.997550000000     0.554030000000    -0.162135   
N6       N      0.442880000000     0.950760000000     0.116120000000    -0.161311   
N7       N      0.678790000000     0.115380000000     0.550560000000    -0.161709   
N8       N      0.654140000000     0.068180000000     0.112510000000    -0.162452   
N9       N      0.670030000000     0.104270000000     0.362270000000    -0.159917   
N10      N      0.644980000000     0.056060000000     0.300970000000    -0.16274    
N11      N      0.571280000000     0.079050000000     0.569920000000    -0.0933836  
N12      N      0.544830000000     0.032520000000     0.630330000000    -0.0969287  
N13      N      0.898660000000     0.336690000000     0.468340000000    -0.161705   
N14      N      0.823000000000     0.273550000000     0.464400000000    -0.160731   
N15      N      0.114690000000     0.548460000000     0.453820000000    -0.0940179  
N16      N      0.092660000000     0.601950000000     0.473320000000    -0.0995312  
N17      N      0.058180000000     0.600440000000     0.291080000000    -0.161095   
N18      N      0.012810000000     0.583490000000     0.353160000000    -0.161068   
N19      N      0.046630000000     0.601680000000     0.102350000000    -0.161467   
N20      N      0.001160000000     0.584200000000     0.540290000000    -0.161166   
N21      N      0.228380000000     0.721490000000     0.208830000000    -0.161105   
N22      N      0.302160000000     0.787580000000     0.214360000000    -0.161425   
N23      N      0.114950000000     0.471680000000     0.304540000000    -0.159505   
N24      N      0.069140000000     0.453570000000     0.366360000000    -0.161859   
N25      N      0.126310000000     0.467260000000     0.118610000000    -0.161983   
N26      N      0.080840000000     0.449430000000     0.556600000000    -0.162516   
N27      N      0.031920000000     0.505430000000     0.072040000000    -0.095001   
N28      N      0.998970000000     0.465300000000     0.134720000000    -0.0995279  
N29      N      0.614520000000     0.817070000000     0.214830000000    -0.161221   
N30      N      0.614380000000     0.888470000000     0.215140000000    -0.160871   
N31      N      0.347330000000     0.472690000000     0.226200000000    -0.160764   
N32      N      0.283290000000     0.483200000000     0.226720000000    -0.161491   
N33      N      0.620750000000     0.580760000000     0.112790000000    -0.0998888  
N34      N      0.571770000000     0.593470000000     0.070550000000    -0.0985535  
N35      N      0.785060000000     0.591860000000     0.439630000000    -0.160816   
N36      N      0.847350000000     0.578590000000     0.436540000000    -0.161544   
N37      N      0.665530000000     0.641080000000     0.354790000000    -0.160656   
N38      N      0.645750000000     0.666730000000     0.292100000000    -0.161226   
N39      N      0.677790000000     0.667680000000     0.543640000000    -0.162075   
N40      N      0.657110000000     0.692760000000     0.105950000000    -0.16175    
N41      N      0.519110000000     0.180030000000     0.454220000000    -0.160671   
N42      N      0.521700000000     0.252800000000     0.454780000000    -0.161263   
N43      N      0.490890000000     0.402860000000     0.375620000000    -0.161304   
N44      N      0.470040000000     0.427960000000     0.313250000000    -0.160689   
N45      N      0.480770000000     0.377890000000     0.562090000000    -0.16193    
N46      N      0.459510000000     0.402490000000     0.124330000000    -0.162101   
N47      N      0.513820000000     0.490390000000     0.555480000000    -0.0997287  
N48      N      0.563530000000     0.477930000000     0.596850000000    -0.0988371  
N49      N      0.593010000000     0.088750000000     0.723330000000    -0.0920735  
N50      N      0.597760000000     0.122670000000     0.789380000000    -0.0992961  
N51      N      0.478950000000     0.012120000000     0.864020000000    -0.162048   
N52      N      0.453020000000     0.964550000000     0.802440000000    -0.16039    
N53      N      0.468360000000     0.997550000000     0.054030000000    -0.162123   
N54      N      0.442880000000     0.950760000000     0.616120000000    -0.161308   
N55      N      0.678790000000     0.115380000000     0.050560000000    -0.161696   
N56      N      0.654140000000     0.068180000000     0.612510000000    -0.162465   
N57      N      0.670030000000     0.104270000000     0.862270000000    -0.159915   
N58      N      0.644980000000     0.056060000000     0.800970000000    -0.162738   
N59      N      0.571280000000     0.079050000000     0.069920000000    -0.0934048  
N60      N      0.544830000000     0.032520000000     0.130330000000    -0.0969269  
N61      N      0.898660000000     0.336690000000     0.968340000000    -0.161719   
N62      N      0.823000000000     0.273550000000     0.964400000000    -0.160738   
N63      N      0.114690000000     0.548460000000     0.953810000000    -0.0940304  
N64      N      0.092660000000     0.601950000000     0.973310000000    -0.0995229  
N65      N      0.058180000000     0.600440000000     0.791080000000    -0.161037   
N66      N      0.012800000000     0.583490000000     0.853150000000    -0.161075   
N67      N      0.046620000000     0.601680000000     0.602350000000    -0.161446   
N68      N      0.001160000000     0.584200000000     0.040290000000    -0.161137   
N69      N      0.228370000000     0.721490000000     0.708820000000    -0.161161   
N70      N      0.302160000000     0.787580000000     0.714360000000    -0.16139    
N71      N      0.114960000000     0.471680000000     0.804540000000    -0.159489   
N72      N      0.069140000000     0.453570000000     0.866360000000    -0.161867   
N73      N      0.126310000000     0.467260000000     0.618610000000    -0.162024   
N74      N      0.080840000000     0.449430000000     0.056600000000    -0.162521   
N75      N      0.031920000000     0.505430000000     0.572040000000    -0.0950142  
N76      N      0.998970000000     0.465300000000     0.634720000000    -0.0995284  
N77      N      0.614520000000     0.817070000000     0.714830000000    -0.161249   
N78      N      0.614380000000     0.888470000000     0.715140000000    -0.160869   
N79      N      0.347330000000     0.472690000000     0.726200000000    -0.160767   
N80      N      0.283290000000     0.483200000000     0.726720000000    -0.161485   
N81      N      0.620750000000     0.580760000000     0.612790000000    -0.0998931  
N82      N      0.571770000000     0.593470000000     0.570550000000    -0.0985446  
N83      N      0.785060000000     0.591860000000     0.939630000000    -0.16082    
N84      N      0.847350000000     0.578590000000     0.936540000000    -0.161521   
N85      N      0.665530000000     0.641080000000     0.854790000000    -0.160674   
N86      N      0.645750000000     0.666730000000     0.792110000000    -0.161239   
N87      N      0.677790000000     0.667690000000     0.043640000000    -0.162044   
N88      N      0.657110000000     0.692760000000     0.605950000000    -0.161731   
N89      N      0.519100000000     0.180030000000     0.954230000000    -0.160642   
N90      N      0.521700000000     0.252800000000     0.954780000000    -0.161255   
N91      N      0.490890000000     0.402860000000     0.875620000000    -0.161328   
N92      N      0.470030000000     0.427960000000     0.813250000000    -0.160685   
N93      N      0.480770000000     0.377890000000     0.062090000000    -0.161894   
N94      N      0.459500000000     0.402490000000     0.624330000000    -0.162134   
N95      N      0.513820000000     0.490390000000     0.055480000000    -0.09973    
N96      N      0.563530000000     0.477930000000     0.096850000000    -0.0988568  
O1       O      0.553770000000     0.320370000000     0.445890000000    -0.243991   
O2       O      0.492370000000     0.354710000000     0.411010000000    -0.2443     
O3       O      0.599030000000     0.409240000000     0.441580000000    -0.215396   
O4       O      0.523110000000     0.364260000000     0.531510000000    -0.241414   
O5       O      0.484860000000     0.376130000000     0.499810000000    -0.247555   
O6       O      0.592420000000     0.413270000000     0.498820000000    -0.225517   
O7       O      0.498290000000     0.293910000000     0.471850000000    -0.244002   
O8       O      0.527280000000     0.415510000000     0.427530000000    -0.246086   
O9       O      0.753970000000     0.623930000000     0.462060000000    -0.240603   
O10      O      0.702730000000     0.632170000000     0.516030000000    -0.24449    
O11      O      0.615720000000     0.546350000000     0.457950000000    -0.220455   
O12      O      0.695750000000     0.652120000000     0.410440000000    -0.241926   
O13      O      0.656230000000     0.591820000000     0.394970000000    -0.239634   
O14      O      0.655500000000     0.537070000000     0.489480000000    -0.225293   
O15      O      0.720740000000     0.571330000000     0.430260000000    -0.244082   
O16      O      0.664280000000     0.644270000000     0.485030000000    -0.246736   
O17      O      0.478530000000     0.531560000000     0.178790000000    -0.225184   
O18      O      0.472490000000     0.425920000000     0.182960000000    -0.246776   
O19      O      0.380440000000     0.441910000000     0.205840000000    -0.240769   
O20      O      0.477570000000     0.477100000000     0.273700000000    -0.239699   
O21      O      0.440500000000     0.416600000000     0.257240000000    -0.242075   
O22      O      0.412100000000     0.495880000000     0.236220000000    -0.243543   
O23      O      0.518600000000     0.523410000000     0.211010000000    -0.220275   
O24      O      0.433200000000     0.436730000000     0.151930000000    -0.244595   
O25      O      0.545340000000     0.659280000000     0.167810000000    -0.225453   
O26      O      0.646000000000     0.715410000000     0.256140000000    -0.243854   
O27      O      0.638000000000     0.776720000000     0.195470000000    -0.243544   
O28      O      0.652620000000     0.694050000000     0.168240000000    -0.247528   
O29      O      0.615240000000     0.707100000000     0.136460000000    -0.240627   
O30      O      0.584350000000     0.749760000000     0.224680000000    -0.243896   
O31      O      0.538340000000     0.660100000000     0.225330000000    -0.214764   
O32      O      0.608930000000     0.654610000000     0.240570000000    -0.245676   
O33      O      0.214450000000     0.576640000000     0.241770000000    -0.214019   
O34      O      0.140430000000     0.507390000000     0.252050000000    -0.231869   
O35      O      0.222600000000     0.468190000000     0.206820000000    -0.244222   
O36      O      0.183420000000     0.505820000000     0.149280000000    -0.240962   
O37      O      0.133630000000     0.465990000000     0.180580000000    -0.245795   
O38      O      0.255090000000     0.521150000000     0.238240000000    -0.245865   
O39      O      0.227130000000     0.575980000000     0.185450000000    -0.216088   
O40      O      0.162900000000     0.470440000000     0.270470000000    -0.242667   
O41      O      0.186000000000     0.654600000000     0.215220000000    -0.246444   
O42      O      0.080300000000     0.630660000000     0.235400000000    -0.243044   
O43      O      0.150050000000     0.587100000000     0.154970000000    -0.224569   
O44      O      0.057400000000     0.586510000000     0.160040000000    -0.249982   
O45      O      0.105180000000     0.634510000000     0.132310000000    -0.242703   
O46      O      0.115650000000     0.551760000000     0.199580000000    -0.212793   
O47      O      0.165250000000     0.689160000000     0.188160000000    -0.240598   
O48      O      0.096450000000     0.588210000000     0.252610000000    -0.238603   
O49      O      0.026530000000     0.505280000000     0.490440000000    -0.228382   
O50      O      0.049810000000     0.425840000000     0.423280000000    -0.239877   
O51      O      0.943240000000     0.400040000000     0.486180000000    -0.248321   
O52      O      0.021620000000     0.422270000000     0.527840000000    -0.248074   
O53      O      0.072140000000     0.462560000000     0.497560000000    -0.244376   
O54      O      0.962710000000     0.370120000000     0.450370000000    -0.244561   
O55      O      0.981620000000     0.480880000000     0.450500000000    -0.210989   
O56      O      0.029150000000     0.464000000000     0.404070000000    -0.246888   
O57      O      0.907280000000     0.481200000000     0.413130000000    -0.210731   
O58      O      0.993130000000     0.591030000000     0.479190000000    -0.247522   
O59      O      0.907560000000     0.590560000000     0.455000000000    -0.245139   
O60      O      0.967360000000     0.588020000000     0.388500000000    -0.243242   
O61      O      0.985610000000     0.546990000000     0.404910000000    -0.241747   
O62      O      0.873490000000     0.539480000000     0.421850000000    -0.245993   
O63      O      0.900970000000     0.480320000000     0.470870000000    -0.214895   
O64      O      0.945410000000     0.544410000000     0.508170000000    -0.241812   
O65      O      0.757950000000     0.245190000000     0.476690000000    -0.244202   
O66      O      0.658310000000     0.126810000000     0.415860000000    -0.242341   
O67      O      0.651030000000     0.195550000000     0.460660000000    -0.207406   
O68      O      0.686600000000     0.168860000000     0.517110000000    -0.239668   
O69      O      0.698820000000     0.127190000000     0.490850000000    -0.248459   
O70      O      0.692410000000     0.230030000000     0.419710000000    -0.220885   
O71      O      0.775810000000     0.213270000000     0.441650000000    -0.238626   
O72      O      0.716750000000     0.156110000000     0.396030000000    -0.238198   
O73      O      0.579980000000     0.064760000000     0.459450000000    -0.21869    
O74      O      0.528190000000     0.057070000000     0.400530000000    -0.244845   
O75      O      0.547320000000     0.141780000000     0.444190000000    -0.238896   
O76      O      0.491640000000     0.057270000000     0.524130000000    -0.241265   
O77      O      0.493680000000     0.009910000000     0.496310000000    -0.247389   
O78      O      0.492100000000     0.114330000000     0.470970000000    -0.24062    
O79      O      0.586050000000     0.111820000000     0.493940000000    -0.211619   
O80      O      0.470430000000     0.028740000000     0.422000000000    -0.243983   
O81      O      0.366810000000     0.816650000000     0.228740000000    -0.245011   
O82      O      0.428140000000     0.941660000000     0.177130000000    -0.246542   
O83      O      0.456210000000     0.859030000000     0.245580000000    -0.215769   
O84      O      0.464570000000     0.941190000000     0.249380000000    -0.241186   
O85      O      0.406270000000     0.911810000000     0.269540000000    -0.243741   
O86      O      0.459740000000     0.859960000000     0.187570000000    -0.212046   
O87      O      0.347830000000     0.852510000000     0.201450000000    -0.245004   
O88      O      0.430480000000     0.894940000000     0.148330000000    -0.238951   
O89      O      0.542600000000     0.948740000000     0.169390000000    -0.222946   
O90      O      0.636150000000     0.009780000000     0.143130000000    -0.242154   
O91      O      0.637220000000     0.952720000000     0.195550000000    -0.240097   
O92      O      0.596500000000     0.009750000000     0.264620000000    -0.242507   
O93      O      0.654630000000     0.037710000000     0.244110000000    -0.247507   
O94      O      0.584090000000     0.924600000000     0.225750000000    -0.243899   
O95      O      0.540550000000     0.988450000000     0.208370000000    -0.216446   
O96      O      0.626450000000     0.053280000000     0.169300000000    -0.248076   
O97      O      0.553770000000     0.320370000000     0.945890000000    -0.243981   
O98      O      0.492370000000     0.354720000000     0.911010000000    -0.244391   
O99      O      0.599040000000     0.409240000000     0.941580000000    -0.215406   
O100     O      0.523110000000     0.364260000000     0.031510000000    -0.241469   
O101     O      0.484860000000     0.376130000000     0.999810000000    -0.247521   
O102     O      0.592420000000     0.413270000000     0.998820000000    -0.225482   
O103     O      0.498290000000     0.293910000000     0.971850000000    -0.243977   
O104     O      0.527290000000     0.415510000000     0.927530000000    -0.246075   
O105     O      0.753970000000     0.623930000000     0.962060000000    -0.240596   
O106     O      0.702730000000     0.632170000000     0.016030000000    -0.244511   
O107     O      0.615720000000     0.546350000000     0.957950000000    -0.220429   
O108     O      0.695750000000     0.652120000000     0.910440000000    -0.24193    
O109     O      0.656230000000     0.591820000000     0.894970000000    -0.239538   
O110     O      0.655500000000     0.537070000000     0.989480000000    -0.225267   
O111     O      0.720740000000     0.571330000000     0.930260000000    -0.244094   
O112     O      0.664280000000     0.644280000000     0.985030000000    -0.246547   
O113     O      0.478530000000     0.531560000000     0.678790000000    -0.225192   
O114     O      0.472490000000     0.425920000000     0.682960000000    -0.246801   
O115     O      0.380440000000     0.441910000000     0.705840000000    -0.24077    
O116     O      0.477570000000     0.477100000000     0.773700000000    -0.239687   
O117     O      0.440500000000     0.416600000000     0.757240000000    -0.242064   
O118     O      0.412100000000     0.495880000000     0.736220000000    -0.24353    
O119     O      0.518600000000     0.523410000000     0.711010000000    -0.220274   
O120     O      0.433200000000     0.436730000000     0.651920000000    -0.244608   
O121     O      0.545340000000     0.659280000000     0.667810000000    -0.225434   
O122     O      0.646000000000     0.715410000000     0.756140000000    -0.243846   
O123     O      0.637990000000     0.776720000000     0.695470000000    -0.243651   
O124     O      0.652620000000     0.694050000000     0.668240000000    -0.247499   
O125     O      0.615240000000     0.707100000000     0.636460000000    -0.240662   
O126     O      0.584350000000     0.749760000000     0.724680000000    -0.243939   
O127     O      0.538340000000     0.660100000000     0.725330000000    -0.214768   
O128     O      0.608930000000     0.654610000000     0.740580000000    -0.245667   
O129     O      0.214440000000     0.576630000000     0.741770000000    -0.213957   
O130     O      0.140430000000     0.507390000000     0.752050000000    -0.231929   
O131     O      0.222600000000     0.468190000000     0.706820000000    -0.244212   
O132     O      0.183420000000     0.505820000000     0.649280000000    -0.240961   
O133     O      0.133630000000     0.465990000000     0.680580000000    -0.245688   
O134     O      0.255090000000     0.521150000000     0.738240000000    -0.24586    
O135     O      0.227140000000     0.575980000000     0.685450000000    -0.216031   
O136     O      0.162900000000     0.470430000000     0.770470000000    -0.24261    
O137     O      0.186000000000     0.654600000000     0.715220000000    -0.246349   
O138     O      0.080300000000     0.630660000000     0.735400000000    -0.243092   
O139     O      0.150050000000     0.587110000000     0.654970000000    -0.224591   
O140     O      0.057400000000     0.586510000000     0.660030000000    -0.250059   
O141     O      0.105180000000     0.634510000000     0.632310000000    -0.242711   
O142     O      0.115650000000     0.551770000000     0.699580000000    -0.212743   
O143     O      0.165250000000     0.689160000000     0.688150000000    -0.240575   
O144     O      0.096450000000     0.588200000000     0.752610000000    -0.238534   
O145     O      0.026530000000     0.505280000000     0.990440000000    -0.228322   
O146     O      0.049810000000     0.425840000000     0.923280000000    -0.239837   
O147     O      0.943240000000     0.400040000000     0.986180000000    -0.248277   
O148     O      0.021620000000     0.422270000000     0.027840000000    -0.248112   
O149     O      0.072140000000     0.462550000000     0.997560000000    -0.244298   
O150     O      0.962710000000     0.370120000000     0.950370000000    -0.244547   
O151     O      0.981630000000     0.480880000000     0.950500000000    -0.211074   
O152     O      0.029140000000     0.464000000000     0.904070000000    -0.246682   
O153     O      0.907280000000     0.481200000000     0.913130000000    -0.210705   
O154     O      0.993130000000     0.591030000000     0.979180000000    -0.247345   
O155     O      0.907560000000     0.590560000000     0.955000000000    -0.245093   
O156     O      0.967360000000     0.588020000000     0.888500000000    -0.243193   
O157     O      0.985610000000     0.546980000000     0.904910000000    -0.241662   
O158     O      0.873490000000     0.539480000000     0.921850000000    -0.245977   
O159     O      0.900980000000     0.480320000000     0.970870000000    -0.21494    
O160     O      0.945410000000     0.544420000000     0.008170000000    -0.241827   
O161     O      0.757950000000     0.245190000000     0.976690000000    -0.244165   
O162     O      0.658310000000     0.126810000000     0.915860000000    -0.242335   
O163     O      0.651030000000     0.195550000000     0.960660000000    -0.207383   
O164     O      0.686600000000     0.168860000000     0.017110000000    -0.239706   
O165     O      0.698820000000     0.127190000000     0.990850000000    -0.248334   
O166     O      0.692410000000     0.230030000000     0.919710000000    -0.22088    
O167     O      0.775810000000     0.213270000000     0.941650000000    -0.238617   
O168     O      0.716750000000     0.156110000000     0.896030000000    -0.238194   
O169     O      0.579980000000     0.064760000000     0.959450000000    -0.218637   
O170     O      0.528190000000     0.057070000000     0.900530000000    -0.244885   
O171     O      0.547320000000     0.141780000000     0.944190000000    -0.238899   
O172     O      0.491640000000     0.057270000000     0.024120000000    -0.241304   
O173     O      0.493680000000     0.009910000000     0.996310000000    -0.247237   
O174     O      0.492100000000     0.114330000000     0.970970000000    -0.240593   
O175     O      0.586050000000     0.111830000000     0.993940000000    -0.211494   
O176     O      0.470430000000     0.028740000000     0.921990000000    -0.244059   
O177     O      0.366820000000     0.816660000000     0.728740000000    -0.244944   
O178     O      0.428140000000     0.941660000000     0.677130000000    -0.246553   
O179     O      0.456210000000     0.859030000000     0.745580000000    -0.215751   
O180     O      0.464570000000     0.941190000000     0.749380000000    -0.241249   
O181     O      0.406270000000     0.911810000000     0.769540000000    -0.243682   
O182     O      0.459740000000     0.859960000000     0.687570000000    -0.212022   
O183     O      0.347830000000     0.852510000000     0.701450000000    -0.245028   
O184     O      0.430480000000     0.894940000000     0.648330000000    -0.238941   
O185     O      0.542600000000     0.948740000000     0.669380000000    -0.222908   
O186     O      0.636150000000     0.009780000000     0.643130000000    -0.242168   
O187     O      0.637220000000     0.952720000000     0.695550000000    -0.240095   
O188     O      0.596500000000     0.009750000000     0.764620000000    -0.242484   
O189     O      0.654630000000     0.037710000000     0.744110000000    -0.24749    
O190     O      0.584090000000     0.924600000000     0.725750000000    -0.243892   
O191     O      0.540550000000     0.988450000000     0.708370000000    -0.21643    
O192     O      0.626450000000     0.053280000000     0.669300000000    -0.248087   


