data_structure

_audit_creation_method RASPA-1.0
_audit_creation_date 2023-5-23
_audit_author_name 'Poobodin Mano'

_cell_length_a    49.1201
_cell_length_b    49.1221
_cell_length_c    49.1234
_cell_angle_alpha 89.9999
_cell_angle_beta  89.9999
_cell_angle_gamma 90.0001
_cell_volume      118529

_symmetry_cell_setting          triclinic
_symmetry_space_group_name_Hall 'P 1'
_symmetry_space_group_name_H-M  'P 1'
_symmetry_Int_Tables_number     1

_symmetry_equiv_pos_as_xyz 'x,y,z'

loop_
_atom_site_label
_atom_site_type_symbol
_atom_site_fract_x
_atom_site_fract_y
_atom_site_fract_z
_atom_site_charge
C1       C      0.122740000000     0.271680000000     0.905140000000     0.343791   
C2       C      0.127670000000     0.345100000000     0.978570000000     0.34357    
C3       C      0.177840000000     0.346430000000     0.904590000000     0.345425   
C4       C      0.072570000000     0.345660000000     0.903830000000     0.345488   
C5       C      0.217670000000     0.383070000000     0.133670000000     0.343622   
C6       C      0.144240000000     0.456490000000     0.138620000000     0.343588   
C7       C      0.143670000000     0.381750000000     0.083520000000     0.345492   
C8       C      0.142940000000     0.382510000000     0.188790000000     0.345378   
C9       C      0.127730000000     0.845100000000     0.043800000000     0.34363    
C10      C      0.122840000000     0.771660000000     0.117220000000     0.343756   
C11      C      0.177930000000     0.846410000000     0.117760000000     0.345498   
C12      C      0.072660000000     0.845650000000     0.118540000000     0.345493   
C13      C      0.032880000000     0.616560000000     0.155190000000     0.343798   
C14      C      0.106320000000     0.611620000000     0.228610000000     0.34384    
C15      C      0.107600000000     0.561440000000     0.154640000000     0.345309   
C16      C      0.106870000000     0.666710000000     0.153880000000     0.345548   
C17      C      0.106300000000     0.366560000000     0.293740000000     0.343654   
C18      C      0.032880000000     0.361670000000     0.367190000000     0.343537   
C19      C      0.106850000000     0.311480000000     0.368500000000     0.345461   
C20      C      0.107640000000     0.416750000000     0.367720000000     0.345454   
C21      C      0.377740000000     0.271710000000     0.117130000000     0.34378    
C22      C      0.372800000000     0.345140000000     0.043700000000     0.343703   
C23      C      0.322620000000     0.346430000000     0.117670000000     0.345486   
C24      C      0.427900000000     0.345710000000     0.118440000000     0.345381   
C25      C      0.877770000000     0.706610000000     0.117210000000     0.343791   
C26      C      0.872850000000     0.633180000000     0.043780000000     0.343555   
C27      C      0.927940000000     0.632620000000     0.118520000000     0.345528   
C28      C      0.822670000000     0.631880000000     0.117750000000     0.345662   
C29      C      0.717600000000     0.095240000000     0.888630000000     0.34366    
C30      C      0.644170000000     0.021820000000     0.883720000000     0.34358    
C31      C      0.643630000000     0.096560000000     0.938810000000     0.345305   
C32      C      0.642860000000     0.095800000000     0.833540000000     0.345231   
C33      C      0.532780000000     0.116670000000     0.655160000000     0.343786   
C34      C      0.606200000000     0.111780000000     0.728590000000     0.34392    
C35      C      0.607540000000     0.061580000000     0.654630000000     0.345466   
C36      C      0.606760000000     0.166850000000     0.653830000000     0.345309   
C37      C      0.377640000000     0.206590000000     0.617150000000     0.343614   
C38      C      0.372760000000     0.133160000000     0.543730000000     0.343485   
C39      C      0.427840000000     0.132630000000     0.618480000000     0.345415   
C40      C      0.322570000000     0.131830000000     0.617700000000     0.345403   
C41      C      0.106240000000     0.866550000000     0.728630000000     0.343499   
C42      C      0.032820000000     0.861650000000     0.655200000000     0.343655   
C43      C      0.107560000000     0.916730000000     0.654650000000     0.345485   
C44      C      0.106790000000     0.811470000000     0.653870000000     0.345557   
C45      C      0.644220000000     0.956640000000     0.638670000000     0.343855   
C46      C      0.717660000000     0.883190000000     0.633770000000     0.343694   
C47      C      0.642910000000     0.882670000000     0.688860000000     0.34566    
C48      C      0.643690000000     0.881900000000     0.583590000000     0.345412   
C49      C      0.532780000000     0.861750000000     0.867210000000     0.343747   
C50      C      0.606220000000     0.866680000000     0.793790000000     0.343524   
C51      C      0.607510000000     0.916870000000     0.867760000000     0.345254   
C52      C      0.606770000000     0.811600000000     0.868540000000     0.345472   
C53      C      0.967720000000     0.861710000000     0.155200000000     0.343698   
C54      C      0.894300000000     0.866640000000     0.228630000000     0.343821   
C55      C      0.892970000000     0.916820000000     0.154650000000     0.345428   
C56      C      0.893740000000     0.811550000000     0.153890000000     0.345439   
C57      C      0.532910000000     0.616670000000     0.367230000000     0.343613   
C58      C      0.606330000000     0.611770000000     0.293790000000     0.343634   
C59      C      0.606890000000     0.666840000000     0.368540000000     0.345397   
C60      C      0.607650000000     0.561570000000     0.367750000000     0.345358   
C61      C      0.644300000000     0.456610000000     0.383700000000     0.343919   
C62      C      0.717710000000     0.383180000000     0.388600000000     0.343681   
C63      C      0.643720000000     0.381860000000     0.438770000000     0.34542    
C64      C      0.642960000000     0.382650000000     0.333500000000     0.345577   
C65      C      0.717710000000     0.595230000000     0.133740000000     0.343653   
C66      C      0.644260000000     0.521820000000     0.138650000000     0.343598   
C67      C      0.642980000000     0.595790000000     0.188840000000     0.345336   
C68      C      0.643720000000     0.596560000000     0.083570000000     0.34539    
C69      C      0.532830000000     0.361760000000     0.155130000000     0.343978   
C70      C      0.606270000000     0.366690000000     0.228560000000     0.343694   
C71      C      0.606810000000     0.311600000000     0.153840000000     0.345434   
C72      C      0.607570000000     0.416880000000     0.154600000000     0.34542    
C73      C      0.856320000000     0.956610000000     0.383750000000     0.343618   
C74      C      0.782900000000     0.883180000000     0.388680000000     0.343475   
C75      C      0.857640000000     0.882630000000     0.333580000000     0.345628   
C76      C      0.856870000000     0.881860000000     0.438850000000     0.34544    
C77      C      0.394300000000     0.866610000000     0.293760000000     0.343761   
C78      C      0.467740000000     0.861710000000     0.367200000000     0.34354    
C79      C      0.392990000000     0.916800000000     0.367720000000     0.345464   
C80      C      0.393760000000     0.811530000000     0.368510000000     0.345415   
C81      C      0.627750000000     0.845220000000     0.478650000000     0.343724   
C82      C      0.622870000000     0.771780000000     0.405220000000     0.343714   
C83      C      0.572680000000     0.845750000000     0.403890000000     0.345589   
C84      C      0.677950000000     0.846520000000     0.404680000000     0.345516   
C85      C      0.394200000000     0.366620000000     0.728550000000     0.34371    
C86      C      0.467630000000     0.361700000000     0.655120000000     0.343598   
C87      C      0.393640000000     0.311530000000     0.653820000000     0.345452   
C88      C      0.392910000000     0.416810000000     0.654590000000     0.345382   
C89      C      0.622760000000     0.271780000000     0.617140000000     0.343608   
C90      C      0.627690000000     0.345200000000     0.543700000000     0.343624   
C91      C      0.572580000000     0.345740000000     0.618440000000     0.345585   
C92      C      0.677860000000     0.346510000000     0.617680000000     0.345565   
C93      C      0.122780000000     0.706530000000     0.617180000000     0.343856   
C94      C      0.127720000000     0.633100000000     0.543750000000     0.343856   
C95      C      0.177890000000     0.631810000000     0.617730000000     0.345314   
C96      C      0.072610000000     0.632560000000     0.618490000000     0.345316   
C97      C      0.217750000000     0.595130000000     0.388650000000     0.343713   
C98      C      0.144320000000     0.521690000000     0.383730000000     0.343694   
C99      C      0.143760000000     0.596430000000     0.438820000000     0.34537    
C100     C      0.143010000000     0.595650000000     0.333550000000     0.345479   
C101     C      0.372860000000     0.633170000000     0.478630000000     0.343738   
C102     C      0.377770000000     0.706590000000     0.405190000000     0.343585   
C103     C      0.427960000000     0.632630000000     0.403890000000     0.345321   
C104     C      0.322690000000     0.631830000000     0.404650000000     0.345495   
C105     C      0.282840000000     0.595180000000     0.633730000000     0.343638   
C106     C      0.356270000000     0.521760000000     0.638640000000     0.343403   
C107     C      0.356840000000     0.596520000000     0.583570000000     0.34532    
C108     C      0.357590000000     0.595730000000     0.688840000000     0.345509   
C109     C      0.217610000000     0.883100000000     0.888670000000     0.343637   
C110     C      0.144170000000     0.956520000000     0.883750000000     0.343625   
C111     C      0.142880000000     0.882540000000     0.833580000000     0.345488   
C112     C      0.143640000000     0.881780000000     0.938850000000     0.345223   
C113     C      0.282780000000     0.383110000000     0.888600000000     0.343623   
C114     C      0.356230000000     0.456550000000     0.883690000000     0.343549   
C115     C      0.356770000000     0.381810000000     0.938760000000     0.345449   
C116     C      0.357520000000     0.382590000000     0.833490000000     0.345549   
C117     C      0.377680000000     0.771700000000     0.905190000000     0.343662   
C118     C      0.372760000000     0.845130000000     0.978610000000     0.343489   
C119     C      0.427830000000     0.845700000000     0.903870000000     0.345483   
C120     C      0.322560000000     0.846440000000     0.904650000000     0.345355   
C121     C      0.394260000000     0.611690000000     0.793790000000     0.343923   
C122     C      0.467680000000     0.616600000000     0.867230000000     0.343552   
C123     C      0.393690000000     0.666760000000     0.868530000000     0.345336   
C124     C      0.392930000000     0.561490000000     0.867740000000     0.345445   
C125     C      0.877650000000     0.206620000000     0.905170000000     0.343634   
C126     C      0.872750000000     0.133180000000     0.978590000000     0.343467   
C127     C      0.822550000000     0.131890000000     0.904630000000     0.345499   
C128     C      0.927830000000     0.132630000000     0.903850000000     0.345524   
C129     C      0.622780000000     0.706660000000     0.905210000000     0.343802   
C130     C      0.627710000000     0.633230000000     0.978640000000     0.34344    
C131     C      0.572620000000     0.632660000000     0.903890000000     0.34542    
C132     C      0.677890000000     0.631920000000     0.904670000000     0.345537   
C133     C      0.877670000000     0.771740000000     0.617220000000     0.343872   
C134     C      0.872790000000     0.845170000000     0.543790000000     0.343719   
C135     C      0.822590000000     0.846500000000     0.617770000000     0.345429   
C136     C      0.927860000000     0.845700000000     0.618530000000     0.345477   
C137     C      0.894240000000     0.611720000000     0.728620000000     0.343655   
C138     C      0.967660000000     0.616610000000     0.655180000000     0.343776   
C139     C      0.892910000000     0.561530000000     0.654650000000     0.345472   
C140     C      0.893680000000     0.666800000000     0.653880000000     0.345474   
C141     C      0.856250000000     0.521790000000     0.883740000000     0.343638   
C142     C      0.782830000000     0.595240000000     0.888680000000     0.343563   
C143     C      0.856820000000     0.596530000000     0.938840000000     0.34545    
C144     C      0.857570000000     0.595760000000     0.833570000000     0.345315   
C145     C      0.967630000000     0.361710000000     0.867180000000     0.343741   
C146     C      0.894190000000     0.366650000000     0.793760000000     0.343797   
C147     C      0.893630000000     0.311570000000     0.868500000000     0.345257   
C148     C      0.892890000000     0.416840000000     0.867730000000     0.345246   
C149     C      0.877740000000     0.271760000000     0.405170000000     0.343879   
C150     C      0.872820000000     0.345190000000     0.478600000000     0.343677   
C151     C      0.927930000000     0.345730000000     0.403870000000     0.345356   
C152     C      0.822660000000     0.346510000000     0.404620000000     0.345379   
C153     C      0.782800000000     0.383170000000     0.633690000000     0.343591   
C154     C      0.856240000000     0.456590000000     0.638640000000     0.343589   
C155     C      0.857540000000     0.382620000000     0.688810000000     0.345296   
C156     C      0.856800000000     0.381850000000     0.583540000000     0.34542    
C157     C      0.282870000000     0.883110000000     0.133740000000     0.343847   
C158     C      0.356290000000     0.956550000000     0.138640000000     0.343697   
C159     C      0.357620000000     0.882580000000     0.188830000000     0.345292   
C160     C      0.356830000000     0.881810000000     0.083560000000     0.345541   
C161     C      0.967700000000     0.116640000000     0.367180000000     0.343744   
C162     C      0.894260000000     0.111730000000     0.293750000000     0.343612   
C163     C      0.892960000000     0.061550000000     0.367730000000     0.345388   
C164     C      0.893720000000     0.166820000000     0.368490000000     0.345295   
C165     C      0.032760000000     0.116570000000     0.867180000000     0.343942   
C166     C      0.106200000000     0.111630000000     0.793750000000     0.343758   
C167     C      0.106750000000     0.166730000000     0.868480000000     0.345356   
C168     C      0.107500000000     0.061460000000     0.867730000000     0.345467   
C169     C      0.122830000000     0.206540000000     0.405180000000     0.343625   
C170     C      0.127720000000     0.133110000000     0.478600000000     0.343704   
C171     C      0.072640000000     0.132580000000     0.403860000000     0.345513   
C172     C      0.177920000000     0.131810000000     0.404630000000     0.34551    
C173     C      0.144220000000     0.021680000000     0.638640000000     0.343459   
C174     C      0.217630000000     0.095130000000     0.633720000000     0.343655   
C175     C      0.143670000000     0.096420000000     0.583550000000     0.345389   
C176     C      0.142880000000     0.095650000000     0.688820000000     0.345408   
C177     C      0.856290000000     0.021760000000     0.138640000000     0.3436     
C178     C      0.782850000000     0.095200000000     0.133720000000     0.343562   
C179     C      0.857590000000     0.095730000000     0.188810000000     0.345528   
C180     C      0.856810000000     0.096500000000     0.083540000000     0.345284   
C181     C      0.622820000000     0.206650000000     0.117190000000     0.343932   
C182     C      0.627720000000     0.133230000000     0.043760000000     0.343671   
C183     C      0.677920000000     0.131900000000     0.117730000000     0.345305   
C184     C      0.572650000000     0.132670000000     0.118500000000     0.345513   
C185     C      0.356310000000     0.021740000000     0.383690000000     0.343533   
C186     C      0.282870000000     0.095160000000     0.388610000000     0.343654   
C187     C      0.356840000000     0.096480000000     0.438780000000     0.345308   
C188     C      0.357610000000     0.095710000000     0.333510000000     0.34545    
C189     C      0.467700000000     0.116620000000     0.155150000000     0.343707   
C190     C      0.394270000000     0.111690000000     0.228570000000     0.343574   
C191     C      0.393720000000     0.166770000000     0.153810000000     0.345513   
C192     C      0.392960000000     0.061500000000     0.154600000000     0.345468   
C193     C      0.393160000000     0.108770000000     0.303110000000     0.035241   
C194     C      0.349050000000     0.099920000000     0.286250000000     0.0349534  
C195     C      0.358330000000     0.103900000000     0.259760000000     0.0347844  
C196     C      0.402560000000     0.112460000000     0.276430000000     0.0352715  
C197     C      0.525380000000     0.128440000000     0.109940000000     0.0349497  
C198     C      0.542240000000     0.119590000000     0.154050000000     0.0352892  
C199     C      0.515570000000     0.115890000000     0.163450000000     0.0351783  
C200     C      0.498900000000     0.124430000000     0.119210000000     0.0347704  
C201     C      0.751670000000     0.131150000000     0.125920000000     0.0347173  
C202     C      0.734980000000     0.086920000000     0.134480000000     0.035139   
C203     C      0.708310000000     0.096340000000     0.130790000000     0.0353487  
C204     C      0.725190000000     0.140430000000     0.121930000000     0.0350379  
C205     C      0.135510000000     0.097160000000     0.509800000000     0.0347362  
C206     C      0.126940000000     0.141390000000     0.526470000000     0.0351965  
C207     C      0.130620000000     0.131980000000     0.553150000000     0.0352948  
C208     C      0.139480000000     0.087880000000     0.536280000000     0.03497    
C209     C      0.225190000000     0.140360000000     0.400430000000     0.0349402  
C210     C      0.208320000000     0.096260000000     0.391560000000     0.0352581  
C211     C      0.235000000000     0.086860000000     0.387860000000     0.0352042  
C212     C      0.251670000000     0.131090000000     0.396430000000     0.0348085  
C213     C      0.097910000000     0.112390000000     0.745880000000     0.0351821  
C214     C      0.142150000000     0.103830000000     0.762560000000     0.0346448  
C215     C      0.151430000000     0.099850000000     0.736080000000     0.0350557  
C216     C      0.107320000000     0.108700000000     0.719210000000     0.0352621  
C217     C      0.902550000000     0.112490000000     0.245880000000     0.035145   
C218     C      0.858320000000     0.103920000000     0.262550000000     0.0346622  
C219     C      0.849050000000     0.099930000000     0.236070000000     0.0350697  
C220     C      0.893140000000     0.108800000000     0.219210000000     0.0354022  
C221     C      0.998890000000     0.124430000000     0.403120000000     0.0347174  
C222     C      0.015570000000     0.115860000000     0.358900000000     0.0352328  
C223     C      0.042240000000     0.119530000000     0.368310000000     0.0352661  
C224     C      0.025370000000     0.128400000000     0.412400000000     0.0350212  
C225     C      0.348000000000     0.004420000000     0.137880000000     0.0350249  
C226     C      0.392240000000     0.987750000000     0.146420000000     0.0348489  
C227     C      0.401510000000     0.014240000000     0.150400000000     0.0349473  
C228     C      0.357410000000     0.031100000000     0.141560000000     0.0353753  
C229     C      0.885540000000     0.240570000000     0.369220000000     0.0346892  
C230     C      0.876970000000     0.223890000000     0.413450000000     0.0351554  
C231     C      0.880660000000     0.197220000000     0.404040000000     0.0352957  
C232     C      0.889530000000     0.214090000000     0.359950000000     0.035098   
C233     C      0.865020000000     0.381130000000     0.509800000000     0.0347798  
C234     C      0.873560000000     0.336900000000     0.526470000000     0.0352212  
C235     C      0.869860000000     0.346300000000     0.553140000000     0.035282   
C236     C      0.861030000000     0.390410000000     0.536280000000     0.0349482  
C237     C      0.902490000000     0.365880000000     0.745890000000     0.035196   
C238     C      0.858250000000     0.374450000000     0.762560000000     0.0346648  
C239     C      0.848980000000     0.378430000000     0.736070000000     0.0351063  
C240     C      0.893090000000     0.369570000000     0.719220000000     0.0352153  
C241     C      0.892190000000     0.490590000000     0.875930000000     0.0346155  
C242     C      0.847950000000     0.473920000000     0.884500000000     0.0351272  
C243     C      0.857350000000     0.447250000000     0.880800000000     0.035324   
C244     C      0.901450000000     0.464100000000     0.871940000000     0.0351544  
C245     C      0.858290000000     0.603930000000     0.759820000000     0.0346904  
C246     C      0.902530000000     0.612490000000     0.776490000000     0.0351109  
C247     C      0.893120000000     0.608810000000     0.803160000000     0.0353559  
C248     C      0.849020000000     0.599950000000     0.786300000000     0.0350301  
C249     C      0.857360000000     0.531130000000     0.641580000000     0.0352677  
C250     C      0.901460000000     0.514260000000     0.650450000000     0.0349014  
C251     C      0.892180000000     0.487780000000     0.646450000000     0.0348642  
C252     C      0.847960000000     0.504460000000     0.637880000000     0.0352377  
C253     C      0.885490000000     0.740550000000     0.653160000000     0.0346999  
C254     C      0.876910000000     0.723870000000     0.608930000000     0.035128   
C255     C      0.880600000000     0.697200000000     0.618340000000     0.0353481  
C256     C      0.889480000000     0.714070000000     0.662430000000     0.0350393  
C257     C      0.725160000000     0.640460000000     0.900470000000     0.0349646  
C258     C      0.708290000000     0.596360000000     0.891600000000     0.0353021  
C259     C      0.734960000000     0.586950000000     0.887910000000     0.0351626  
C260     C      0.751640000000     0.631180000000     0.896490000000     0.0347182  
C261     C      0.864950000000     0.097240000000     0.009780000000     0.0349143  
C262     C      0.873550000000     0.141460000000     0.026460000000     0.0352228  
C263     C      0.869870000000     0.132050000000     0.053140000000     0.0352772  
C264     C      0.860980000000     0.087960000000     0.036270000000     0.035004   
C265     C      0.876900000000     0.254490000000     0.913460000000     0.0351505  
C266     C      0.885440000000     0.237820000000     0.869220000000     0.0347065  
C267     C      0.889420000000     0.264300000000     0.859950000000     0.035018   
C268     C      0.880580000000     0.281170000000     0.904050000000     0.0353156  
C269     C      0.958220000000     0.119550000000     0.868300000000     0.0352934  
C270     C      0.975090000000     0.128410000000     0.912400000000     0.0350394  
C271     C      0.001570000000     0.124400000000     0.903120000000     0.0347061  
C272     C      0.984890000000     0.115840000000     0.858890000000     0.0351643  
C273     C      0.498870000000     0.624430000000     0.903170000000     0.03466    
C274     C      0.515550000000     0.615870000000     0.858940000000     0.0351342  
C275     C      0.542220000000     0.619580000000     0.868350000000     0.0353756  
C276     C      0.525350000000     0.628430000000     0.912440000000     0.0350575  
C277     C      0.373550000000     0.836850000000     0.026480000000     0.0352056  
C278     C      0.364970000000     0.881080000000     0.009800000000     0.0348053  
C279     C      0.361000000000     0.890350000000     0.036290000000     0.0351078  
C280     C      0.369880000000     0.846260000000     0.053150000000     0.0352826  
C281     C      0.385480000000     0.740510000000     0.869250000000     0.0348028  
C282     C      0.376930000000     0.723840000000     0.913480000000     0.0352961  
C283     C      0.380630000000     0.697160000000     0.904080000000     0.0352534  
C284     C      0.389480000000     0.714030000000     0.859970000000     0.0348785  
C285     C      0.392180000000     0.487740000000     0.875900000000     0.0347042  
C286     C      0.347950000000     0.504420000000     0.884470000000     0.0351098  
C287     C      0.357370000000     0.531090000000     0.880790000000     0.035341   
C288     C      0.401460000000     0.514220000000     0.871920000000     0.0350749  
C289     C      0.108220000000     0.987710000000     0.875930000000     0.0348685  
C290     C      0.152450000000     0.004390000000     0.884500000000     0.0351052  
C291     C      0.143050000000     0.031060000000     0.880810000000     0.0352691  
C292     C      0.098950000000     0.014190000000     0.871940000000     0.0348312  
C293     C      0.265480000000     0.891390000000     0.887900000000     0.0351286  
C294     C      0.248810000000     0.847160000000     0.896480000000     0.0348279  
C295     C      0.275290000000     0.837880000000     0.900460000000     0.034913   
C296     C      0.292160000000     0.881980000000     0.891590000000     0.0353969  
C297     C      0.349040000000     0.599930000000     0.736100000000     0.035042   
C298     C      0.393150000000     0.608770000000     0.719250000000     0.0352683  
C299     C      0.402550000000     0.612450000000     0.745920000000     0.0351641  
C300     C      0.358310000000     0.603910000000     0.762590000000     0.0347485  
C301     C      0.365080000000     0.597230000000     0.509830000000     0.0347431  
C302     C      0.373590000000     0.641480000000     0.526500000000     0.0350808  
C303     C      0.369890000000     0.632070000000     0.553170000000     0.035389   
C304     C      0.361090000000     0.587960000000     0.536310000000     0.0350087  
C305     C      0.265620000000     0.586860000000     0.387910000000     0.0353082  
C306     C      0.248940000000     0.631090000000     0.396450000000     0.0346649  
C307     C      0.275420000000     0.640370000000     0.400440000000     0.0350324  
C308     C      0.292300000000     0.596270000000     0.391600000000     0.0352642  
C309     C      0.135540000000     0.597160000000     0.512560000000     0.0348599  
C310     C      0.126970000000     0.641380000000     0.495880000000     0.035171   
C311     C      0.130680000000     0.631980000000     0.469210000000     0.0352852  
C312     C      0.139550000000     0.587880000000     0.486080000000     0.0349533  
C313     C      0.042210000000     0.619510000000     0.654040000000     0.035249   
C314     C      0.025330000000     0.628390000000     0.609950000000     0.0349876  
C315     C      0.998850000000     0.624410000000     0.619230000000     0.0347364  
C316     C      0.015530000000     0.615830000000     0.663450000000     0.0352773  
C317     C      0.208300000000     0.596280000000     0.630790000000     0.0353811  
C318     C      0.225150000000     0.640380000000     0.621930000000     0.0349686  
C319     C      0.251640000000     0.631110000000     0.625920000000     0.0348048  
C320     C      0.234980000000     0.586880000000     0.634490000000     0.0351875  
C321     C      0.708260000000     0.382060000000     0.630740000000     0.0353455  
C322     C      0.725120000000     0.337960000000     0.621890000000     0.0350542  
C323     C      0.751610000000     0.347230000000     0.625890000000     0.0347028  
C324     C      0.734930000000     0.391460000000     0.634440000000     0.0351416  
C325     C      0.402480000000     0.365830000000     0.776420000000     0.0351704  
C326     C      0.358250000000     0.374430000000     0.759740000000     0.0346726  
C327     C      0.348980000000     0.378410000000     0.786230000000     0.035104   
C328     C      0.393070000000     0.369520000000     0.803090000000     0.0353182  
C329     C      0.498820000000     0.353900000000     0.619170000000     0.0346092  
C330     C      0.515500000000     0.362480000000     0.663400000000     0.0351927  
C331     C      0.542180000000     0.358800000000     0.653990000000     0.0352982  
C332     C      0.525310000000     0.349920000000     0.609900000000     0.0351555  
C333     C      0.357370000000     0.447220000000     0.641540000000     0.0353845  
C334     C      0.401470000000     0.464070000000     0.650420000000     0.034994   
C335     C      0.392200000000     0.490560000000     0.646440000000     0.0347895  
C336     C      0.347970000000     0.473900000000     0.637850000000     0.035156   
C337     C      0.358350000000     0.874400000000     0.262570000000     0.0346389  
C338     C      0.402590000000     0.865840000000     0.245890000000     0.0351443  
C339     C      0.393180000000     0.869530000000     0.219220000000     0.0353539  
C340     C      0.349080000000     0.878380000000     0.236090000000     0.0350852  
C341     C      0.498920000000     0.853920000000     0.403150000000     0.034716   
C342     C      0.515610000000     0.862480000000     0.358920000000     0.0351414  
C343     C      0.542280000000     0.858800000000     0.368340000000     0.0353242  
C344     C      0.525400000000     0.849940000000     0.412430000000     0.0350664  
C345     C      0.389560000000     0.764260000000     0.359970000000     0.0350015  
C346     C      0.380700000000     0.781130000000     0.404060000000     0.0353256  
C347     C      0.377000000000     0.754460000000     0.413470000000     0.0351732  
C348     C      0.385570000000     0.737780000000     0.369250000000     0.0347798  
C349     C      0.401530000000     0.964070000000     0.371910000000     0.0349436  
C350     C      0.357430000000     0.947200000000     0.380780000000     0.0352825  
C351     C      0.348030000000     0.973870000000     0.384460000000     0.0352556  
C352     C      0.392260000000     0.990550000000     0.375890000000     0.0348858  
C353     C      0.848020000000     0.004470000000     0.384490000000     0.0350788  
C354     C      0.892260000000     0.987810000000     0.375940000000     0.0348173  
C355     C      0.901520000000     0.014290000000     0.371950000000     0.0349531  
C356     C      0.857420000000     0.031150000000     0.380800000000     0.0353101  
C357     C      0.751700000000     0.847240000000     0.396490000000     0.0347105  
C358     C      0.735030000000     0.891470000000     0.387920000000     0.0352238  
C359     C      0.708350000000     0.882070000000     0.391620000000     0.0352993  
C360     C      0.725220000000     0.837970000000     0.400490000000     0.0349888  
C361     C      0.861060000000     0.890400000000     0.486110000000     0.0351     
C362     C      0.869890000000     0.846300000000     0.469250000000     0.0353724  
C363     C      0.873560000000     0.836890000000     0.495920000000     0.0351826  
C364     C      0.865030000000     0.881130000000     0.512600000000     0.0346371  
C365     C      0.619890000000     0.281190000000     0.118300000000     0.0354195  
C366     C      0.611010000000     0.264330000000     0.162390000000     0.0349201  
C367     C      0.615010000000     0.237850000000     0.153120000000     0.0348263  
C368     C      0.623590000000     0.254520000000     0.108890000000     0.0350765  
C369     C      0.652540000000     0.473950000000     0.137860000000     0.0351246  
C370     C      0.608310000000     0.490630000000     0.146460000000     0.0347463  
C371     C      0.599030000000     0.464150000000     0.150440000000     0.0349551  
C372     C      0.643120000000     0.447270000000     0.141540000000     0.0354161  
C373     C      0.639500000000     0.588010000000     0.036310000000     0.0348799  
C374     C      0.630660000000     0.632110000000     0.053170000000     0.0354265  
C375     C      0.626960000000     0.641520000000     0.026500000000     0.0351715  
C376     C      0.635510000000     0.597290000000     0.009830000000     0.0349614  
C377     C      0.748910000000     0.347230000000     0.396410000000     0.0346945  
C378     C      0.765580000000     0.391460000000     0.387850000000     0.035233   
C379     C      0.792260000000     0.382060000000     0.391550000000     0.0352575  
C380     C      0.775390000000     0.337960000000     0.400410000000     0.0350442  
C381     C      0.630660000000     0.346310000000     0.469160000000     0.0353134  
C382     C      0.639490000000     0.390420000000     0.486030000000     0.0349551  
C383     C      0.635490000000     0.381140000000     0.512510000000     0.034776   
C384     C      0.626950000000     0.336910000000     0.495830000000     0.0351714  
C385     C      0.651500000000     0.378460000000     0.286230000000     0.0350003  
C386     C      0.607400000000     0.369610000000     0.303110000000     0.0353582  
C387     C      0.597980000000     0.365920000000     0.276430000000     0.0351917  
C388     C      0.642220000000     0.374480000000     0.259750000000     0.0346557  
C389     C      0.501720000000     0.624470000000     0.403170000000     0.0346853  
C390     C      0.485040000000     0.615900000000     0.358940000000     0.0351848  
C391     C      0.458360000000     0.619580000000     0.368350000000     0.0353867  
C392     C      0.475230000000     0.628460000000     0.412440000000     0.0350366  
C393     C      0.598040000000     0.612540000000     0.245930000000     0.0352562  
C394     C      0.642270000000     0.603960000000     0.262590000000     0.0347307  
C395     C      0.651540000000     0.599980000000     0.236110000000     0.0349452  
C396     C      0.607440000000     0.608860000000     0.219250000000     0.035322   
C397     C      0.643200000000     0.531160000000     0.380790000000     0.0353167  
C398     C      0.599090000000     0.514310000000     0.371940000000     0.0350063  
C399     C      0.608360000000     0.487820000000     0.375920000000     0.0347613  
C400     C      0.652600000000     0.504480000000     0.384470000000     0.0351704  
C401     C      0.619940000000     0.697240000000     0.404100000000     0.0353648  
C402     C      0.611100000000     0.714110000000     0.360000000000     0.0349895  
C403     C      0.615080000000     0.740590000000     0.369270000000     0.0347316  
C404     C      0.623630000000     0.723910000000     0.413510000000     0.0350798  
C405     C      0.858350000000     0.874420000000     0.259830000000     0.0346881  
C406     C      0.902600000000     0.865890000000     0.276500000000     0.0351212  
C407     C      0.893190000000     0.869580000000     0.303170000000     0.0353703  
C408     C      0.849080000000     0.878410000000     0.286320000000     0.0350625  
C409     C      0.901520000000     0.964090000000     0.150430000000     0.0348511  
C410     C      0.857410000000     0.947220000000     0.141590000000     0.0353501  
C411     C      0.848000000000     0.973890000000     0.137890000000     0.0351579  
C412     C      0.892240000000     0.990570000000     0.146430000000     0.0349544  
C413     C      0.501580000000     0.853940000000     0.903150000000     0.0347121  
C414     C      0.484910000000     0.862480000000     0.858920000000     0.0352382  
C415     C      0.458230000000     0.858770000000     0.868320000000     0.0352699  
C416     C      0.475100000000     0.849940000000     0.912420000000     0.0350605  
C417     C      0.610990000000     0.764330000000     0.859990000000     0.0350429  
C418     C      0.619830000000     0.781200000000     0.904090000000     0.035239   
C419     C      0.623520000000     0.754520000000     0.913490000000     0.0352863  
C420     C      0.614980000000     0.737850000000     0.869260000000     0.0347215  
C421     C      0.748840000000     0.847240000000     0.625970000000     0.0347835  
C422     C      0.765530000000     0.891470000000     0.634530000000     0.0351512  
C423     C      0.792200000000     0.882060000000     0.630830000000     0.0353378  
C424     C      0.775320000000     0.837960000000     0.621970000000     0.0349492  
C425     C      0.630640000000     0.846340000000     0.553190000000     0.0352686  
C426     C      0.639510000000     0.890440000000     0.536320000000     0.0349866  
C427     C      0.635540000000     0.881160000000     0.509840000000     0.0347424  
C428     C      0.626960000000     0.836940000000     0.526520000000     0.0352287  
C429     C      0.651450000000     0.878480000000     0.736130000000     0.0349484  
C430     C      0.607350000000     0.869610000000     0.719260000000     0.0353416  
C431     C      0.597940000000     0.865920000000     0.745930000000     0.0351901  
C432     C      0.642170000000     0.874490000000     0.762610000000     0.0347743  
C433     C      0.984950000000     0.862430000000     0.663490000000     0.035154   
C434     C      0.001620000000     0.853850000000     0.619260000000     0.0347982  
C435     C      0.975130000000     0.849880000000     0.609980000000     0.0350012  
C436     C      0.958270000000     0.858750000000     0.654080000000     0.0353075  
C437     C      0.142170000000     0.874340000000     0.759830000000     0.0347562  
C438     C      0.097930000000     0.865790000000     0.776490000000     0.0352408  
C439     C      0.107330000000     0.869480000000     0.803170000000     0.0352961  
C440     C      0.151440000000     0.878330000000     0.786310000000     0.0349454  
C441     C      0.119850000000     0.781070000000     0.618310000000     0.0353111  
C442     C      0.111000000000     0.764200000000     0.662410000000     0.0349608  
C443     C      0.114990000000     0.737720000000     0.653130000000     0.0347556  
C444     C      0.123540000000     0.754400000000     0.608900000000     0.0352021  
C445     C      0.099010000000     0.964000000000     0.650420000000     0.0350061  
C446     C      0.143120000000     0.947140000000     0.641600000000     0.0352916  
C447     C      0.152520000000     0.973810000000     0.637900000000     0.0351766  
C448     C      0.108280000000     0.990480000000     0.646430000000     0.0348725  
C449     C      0.373540000000     0.141450000000     0.495860000000     0.035114   
C450     C      0.365000000000     0.097210000000     0.512530000000     0.0347621  
C451     C      0.361030000000     0.087930000000     0.486050000000     0.0349221  
C452     C      0.369870000000     0.132040000000     0.469190000000     0.0353598  
C453     C      0.385440000000     0.237780000000     0.653100000000     0.0346707  
C454     C      0.376880000000     0.254460000000     0.608860000000     0.0351192  
C455     C      0.380570000000     0.281130000000     0.618270000000     0.0353613  
C456     C      0.389430000000     0.264270000000     0.662370000000     0.0350672  
C457     C      0.248820000000     0.131080000000     0.625910000000     0.0346925  
C458     C      0.265510000000     0.086860000000     0.634470000000     0.0352376  
C459     C      0.292180000000     0.096270000000     0.630770000000     0.0352504  
C460     C      0.275300000000     0.140360000000     0.621910000000     0.0351027  
C461     C      0.484910000000     0.115900000000     0.663440000000     0.0351693  
C462     C      0.501590000000     0.124460000000     0.619210000000     0.0347472  
C463     C      0.475110000000     0.128440000000     0.609930000000     0.0349693  
C464     C      0.458240000000     0.119580000000     0.654030000000     0.0352934  
C465     C      0.643100000000     0.031180000000     0.641590000000     0.035322   
C466     C      0.598990000000     0.014310000000     0.650430000000     0.034834   
C467     C      0.608270000000     0.987830000000     0.646460000000     0.0348536  
C468     C      0.652510000000     0.004510000000     0.637910000000     0.0350709  
C469     C      0.619820000000     0.197240000000     0.618280000000     0.0353218  
C470     C      0.610970000000     0.214110000000     0.662370000000     0.0350892  
C471     C      0.614960000000     0.240590000000     0.653090000000     0.034692   
C472     C      0.623510000000     0.223910000000     0.608860000000     0.0351788  
C473     C      0.748800000000     0.131180000000     0.896450000000     0.0346712  
C474     C      0.765470000000     0.086950000000     0.887860000000     0.0351896  
C475     C      0.792140000000     0.096350000000     0.891550000000     0.0352393  
C476     C      0.775280000000     0.140450000000     0.900440000000     0.035049   
C477     C      0.652460000000     0.973950000000     0.884500000000     0.0351005  
C478     C      0.608230000000     0.990620000000     0.875920000000     0.0349711  
C479     C      0.598950000000     0.964130000000     0.871940000000     0.0349316  
C480     C      0.643050000000     0.947280000000     0.880810000000     0.0354226  
C481     C      0.597900000000     0.112540000000     0.776460000000     0.0351412  
C482     C      0.642140000000     0.104000000000     0.759790000000     0.0347774  
C483     C      0.651420000000     0.100010000000     0.786280000000     0.0349852  
C484     C      0.607310000000     0.108850000000     0.803130000000     0.0353325  
C485     C      0.639450000000     0.088010000000     0.986080000000     0.034816   
C486     C      0.630600000000     0.132110000000     0.969220000000     0.0353121  
C487     C      0.626930000000     0.141520000000     0.995900000000     0.0351437  
C488     C      0.635480000000     0.097290000000     0.012560000000     0.0349167  
C489     C      0.869900000000     0.632070000000     0.969240000000     0.0353817  
C490     C      0.861030000000     0.587970000000     0.986100000000     0.0348339  
C491     C      0.865030000000     0.597240000000     0.012580000000     0.0348696  
C492     C      0.873600000000     0.641470000000     0.995910000000     0.0350582  
C493     C      0.885560000000     0.737800000000     0.153160000000     0.0347422  
C494     C      0.877010000000     0.754480000000     0.108930000000     0.0352143  
C495     C      0.880690000000     0.781150000000     0.118330000000     0.0352787  
C496     C      0.889540000000     0.764280000000     0.162430000000     0.0349939  
C497     C      0.792260000000     0.596330000000     0.130810000000     0.0352867  
C498     C      0.775400000000     0.640440000000     0.121950000000     0.0350147  
C499     C      0.748910000000     0.631170000000     0.125930000000     0.0346976  
C500     C      0.765580000000     0.586930000000     0.134500000000     0.0351846  
C501     C      0.376990000000     0.223840000000     0.108840000000     0.0351777  
C502     C      0.385520000000     0.240520000000     0.153080000000     0.0346475  
C503     C      0.389500000000     0.214040000000     0.162350000000     0.0350716  
C504     C      0.380670000000     0.197170000000     0.118250000000     0.0353059  
C505     C      0.360980000000     0.390360000000     0.986030000000     0.0348007  
C506     C      0.369850000000     0.346260000000     0.969160000000     0.0352762  
C507     C      0.373560000000     0.336860000000     0.995830000000     0.0351007  
C508     C      0.364980000000     0.381080000000     0.012510000000     0.0349473  
C509     C      0.475170000000     0.349940000000     0.109900000000     0.0349448  
C510     C      0.458290000000     0.358790000000     0.153990000000     0.035405   
C511     C      0.484960000000     0.362500000000     0.163400000000     0.035177   
C512     C      0.501650000000     0.353940000000     0.119180000000     0.034774   
C513     C      0.001690000000     0.353870000000     0.403130000000     0.0347297  
C514     C      0.985010000000     0.362460000000     0.358910000000     0.0351903  
C515     C      0.958340000000     0.358780000000     0.368320000000     0.0353491  
C516     C      0.975210000000     0.349900000000     0.412410000000     0.0349414  
C517     C      0.099100000000     0.464020000000     0.371930000000     0.0349696  
C518     C      0.143200000000     0.447150000000     0.380780000000     0.035316   
C519     C      0.152610000000     0.473820000000     0.384470000000     0.0352121  
C520     C      0.108380000000     0.490500000000     0.375930000000     0.0347568  
C521     C      0.111050000000     0.264210000000     0.359950000000     0.0349829  
C522     C      0.119910000000     0.281080000000     0.404050000000     0.0353198  
C523     C      0.123600000000     0.254410000000     0.413460000000     0.0351899  
C524     C      0.115030000000     0.237730000000     0.369230000000     0.0347103  
C525     C      0.142270000000     0.603810000000     0.259800000000     0.0347534  
C526     C      0.098040000000     0.612390000000     0.276480000000     0.0351416  
C527     C      0.107460000000     0.608710000000     0.303150000000     0.0354184  
C528     C      0.151550000000     0.599830000000     0.286280000000     0.0349505  
C529     C      0.985010000000     0.615820000000     0.163480000000     0.0351906  
C530     C      0.001690000000     0.624390000000     0.119250000000     0.0347354  
C531     C      0.975210000000     0.628400000000     0.109970000000     0.0349748  
C532     C      0.958340000000     0.619530000000     0.154070000000     0.0352884  
C533     C      0.126930000000     0.836810000000     0.995930000000     0.0351201  
C534     C      0.135500000000     0.881040000000     0.012600000000     0.034927   
C535     C      0.139470000000     0.890320000000     0.986120000000     0.0348202  
C536     C      0.130600000000     0.846220000000     0.969250000000     0.0352668  
C537     C      0.115050000000     0.740460000000     0.153160000000     0.0348733  
C538     C      0.123610000000     0.723790000000     0.108930000000     0.0350564  
C539     C      0.119930000000     0.697120000000     0.118340000000     0.0354316  
C540     C      0.111070000000     0.713980000000     0.162440000000     0.0349014  
C541     C      0.225200000000     0.837880000000     0.121950000000     0.0350505  
C542     C      0.208320000000     0.881970000000     0.130820000000     0.0353012  
C543     C      0.235000000000     0.891380000000     0.134520000000     0.0352622  
C544     C      0.251680000000     0.847160000000     0.125940000000     0.0347169  
C545     C      0.015590000000     0.862440000000     0.163490000000     0.0352042  
C546     C      0.998910000000     0.853880000000     0.119260000000     0.0347238  
C547     C      0.025390000000     0.849870000000     0.109990000000     0.0349955  
C548     C      0.042260000000     0.858730000000     0.154090000000     0.0352776  
C549     C      0.265540000000     0.391370000000     0.134430000000     0.0351219  
C550     C      0.248870000000     0.347140000000     0.125850000000     0.0347934  
C551     C      0.275360000000     0.337870000000     0.121860000000     0.034971   
C552     C      0.292210000000     0.381970000000     0.130740000000     0.035397   
C553     C      0.152540000000     0.504360000000     0.137850000000     0.0350862  
C554     C      0.108310000000     0.487690000000     0.146450000000     0.0347936  
C555     C      0.099040000000     0.514170000000     0.150440000000     0.0349295  
C556     C      0.143140000000     0.531030000000     0.141550000000     0.0353891  
C557     C      0.097990000000     0.365790000000     0.245880000000     0.0351663  
C558     C      0.142240000000     0.374330000000     0.262530000000     0.0346478  
C559     C      0.151500000000     0.378300000000     0.236050000000     0.0350337  
C560     C      0.107390000000     0.369470000000     0.219200000000     0.0353487  
C561     C      0.114940000000     0.240480000000     0.869200000000     0.0346957  
C562     C      0.123500000000     0.223810000000     0.913430000000     0.0352629  
C563     C      0.119810000000     0.197130000000     0.904030000000     0.035225   
C564     C      0.110950000000     0.214000000000     0.859930000000     0.0350208  
C565     C      0.135450000000     0.381040000000     0.009770000000     0.0348785  
C566     C      0.126920000000     0.336800000000     0.026440000000     0.0351774  
C567     C      0.130610000000     0.346200000000     0.053110000000     0.0353333  
C568     C      0.139450000000     0.390310000000     0.036260000000     0.0349832  
C569     C      0.025300000000     0.349880000000     0.912390000000     0.0349934  
C570     C      0.042170000000     0.358740000000     0.868290000000     0.0352851  
C571     C      0.015500000000     0.362450000000     0.858890000000     0.0351863  
C572     C      0.998820000000     0.353880000000     0.903120000000     0.0347094  
C573     C      0.208240000000     0.381980000000     0.891540000000     0.0352703  
C574     C      0.225110000000     0.337880000000     0.900380000000     0.0350497  
C575     C      0.251590000000     0.347160000000     0.896390000000     0.0346496  
C576     C      0.234910000000     0.391390000000     0.887840000000     0.035256   
Cd1      Cd     0.125210000000     0.327600000000     0.922650000000     0.514795   
Cd2      Cd     0.161740000000     0.400560000000     0.136150000000     0.514777   
Cd3      Cd     0.125290000000     0.827590000000     0.099720000000     0.514815   
Cd4      Cd     0.088810000000     0.614080000000     0.172690000000     0.514827   
Cd5      Cd     0.088810000000     0.364120000000     0.349670000000     0.514764   
Cd6      Cd     0.375270000000     0.327630000000     0.099620000000     0.514842   
Cd7      Cd     0.875310000000     0.650680000000     0.099700000000     0.514792   
Cd8      Cd     0.661670000000     0.077740000000     0.886170000000     0.514756   
Cd9      Cd     0.588710000000     0.114220000000     0.672670000000     0.514788   
Cd10     Cd     0.375200000000     0.150660000000     0.599650000000     0.514759   
Cd11     Cd     0.088740000000     0.864100000000     0.672700000000     0.514765   
Cd12     Cd     0.661730000000     0.900710000000     0.636230000000     0.51483    
Cd13     Cd     0.588700000000     0.864220000000     0.849710000000     0.514787   
Cd14     Cd     0.911790000000     0.864190000000     0.172710000000     0.514761   
Cd15     Cd     0.588840000000     0.614210000000     0.349720000000     0.514795   
Cd16     Cd     0.661790000000     0.400680000000     0.386140000000     0.514789   
Cd17     Cd     0.661780000000     0.577740000000     0.136200000000     0.514791   
Cd18     Cd     0.588750000000     0.364230000000     0.172640000000     0.514781   
Cd19     Cd     0.838820000000     0.900680000000     0.386210000000     0.514789   
Cd20     Cd     0.411810000000     0.864160000000     0.349680000000     0.514771   
Cd21     Cd     0.625310000000     0.827710000000     0.422730000000     0.514801   
Cd22     Cd     0.411710000000     0.364160000000     0.672630000000     0.514813   
Cd23     Cd     0.625220000000     0.327700000000     0.599620000000     0.514792   
Cd24     Cd     0.125240000000     0.650610000000     0.599670000000     0.514807   
Cd25     Cd     0.161830000000     0.577610000000     0.386190000000     0.514794   
Cd26     Cd     0.375320000000     0.650670000000     0.422710000000     0.51475    
Cd27     Cd     0.338780000000     0.577690000000     0.636200000000     0.514764   
Cd28     Cd     0.161680000000     0.900600000000     0.886210000000     0.514752   
Cd29     Cd     0.338710000000     0.400630000000     0.886130000000     0.51478    
Cd30     Cd     0.375210000000     0.827630000000     0.922690000000     0.514766   
Cd31     Cd     0.411750000000     0.614130000000     0.849710000000     0.514785   
Cd32     Cd     0.875200000000     0.150700000000     0.922670000000     0.51478    
Cd33     Cd     0.625250000000     0.650730000000     0.922710000000     0.51475    
Cd34     Cd     0.875220000000     0.827660000000     0.599710000000     0.514785   
Cd35     Cd     0.911740000000     0.614160000000     0.672700000000     0.514804   
Cd36     Cd     0.838760000000     0.577720000000     0.886210000000     0.514805   
Cd37     Cd     0.911700000000     0.364200000000     0.849680000000     0.514776   
Cd38     Cd     0.875290000000     0.327680000000     0.422680000000     0.514786   
Cd39     Cd     0.838730000000     0.400670000000     0.636170000000     0.514782   
Cd40     Cd     0.338790000000     0.900630000000     0.136190000000     0.514812   
Cd41     Cd     0.911770000000     0.114190000000     0.349670000000     0.514799   
Cd42     Cd     0.088690000000     0.114090000000     0.849670000000     0.514796   
Cd43     Cd     0.125280000000     0.150620000000     0.422680000000     0.514807   
Cd44     Cd     0.161710000000     0.077610000000     0.636180000000     0.514792   
Cd45     Cd     0.838780000000     0.077680000000     0.136170000000     0.514797   
Cd46     Cd     0.625280000000     0.150730000000     0.099690000000     0.514834   
Cd47     Cd     0.338800000000     0.077660000000     0.386150000000     0.514778   
Cd48     Cd     0.411770000000     0.114140000000     0.172640000000     0.514805   
H1       H      0.407610000000     0.110710000000     0.319670000000     0.0509099  
H2       H      0.327740000000     0.094880000000     0.289060000000     0.0507109  
H3       H      0.343740000000     0.101740000000     0.243330000000     0.0510699  
H4       H      0.423900000000     0.117260000000     0.273400000000     0.0509645  
H5       H      0.528190000000     0.133480000000     0.088630000000     0.0507216  
H6       H      0.558810000000     0.117670000000     0.168510000000     0.0508986  
H7       H      0.512540000000     0.111090000000     0.184780000000     0.0509914  
H8       H      0.482460000000     0.126580000000     0.104620000000     0.051086   
H9       H      0.768110000000     0.145730000000     0.123760000000     0.051097   
H10      H      0.738000000000     0.065590000000     0.139280000000     0.0509916  
H11      H      0.691730000000     0.081890000000     0.132730000000     0.0508893  
H12      H      0.722380000000     0.161750000000     0.116890000000     0.0507002  
H13      H      0.137670000000     0.082580000000     0.493360000000     0.0510859  
H14      H      0.122140000000     0.162720000000     0.523440000000     0.0510005  
H15      H      0.128670000000     0.146430000000     0.569710000000     0.0508992  
H16      H      0.144520000000     0.066570000000     0.539090000000     0.0506956  
H17      H      0.222380000000     0.161670000000     0.405470000000     0.0507162  
H18      H      0.191760000000     0.081810000000     0.389620000000     0.0509048  
H19      H      0.238030000000     0.065530000000     0.383050000000     0.0509782  
H20      H      0.268110000000     0.145680000000     0.398590000000     0.0510677  
H21      H      0.076580000000     0.117180000000     0.748910000000     0.0509945  
H22      H      0.156730000000     0.101680000000     0.779000000000     0.0511099  
H23      H      0.172740000000     0.094810000000     0.733280000000     0.0506776  
H24      H      0.092870000000     0.110640000000     0.702640000000     0.0509036  
H25      H      0.923880000000     0.117300000000     0.248910000000     0.0510003  
H26      H      0.843740000000     0.101760000000     0.278990000000     0.0511007  
H27      H      0.827730000000     0.094880000000     0.233270000000     0.0506731  
H28      H      0.907600000000     0.110740000000     0.202640000000     0.0508781  
H29      H      0.982450000000     0.126600000000     0.417700000000     0.0510961  
H30      H      0.012540000000     0.111050000000     0.337570000000     0.0509803  
H31      H      0.058810000000     0.117590000000     0.353860000000     0.0509029  
H32      H      0.028180000000     0.133450000000     0.433710000000     0.0506909  
H33      H      0.326670000000     0.001390000000     0.133080000000     0.0509972  
H34      H      0.406820000000     0.971320000000     0.148580000000     0.0510972  
H35      H      0.422830000000     0.017050000000     0.155440000000     0.0506885  
H36      H      0.342950000000     0.047660000000     0.139620000000     0.0508737  
H37      H      0.887710000000     0.257010000000     0.354640000000     0.0511041  
H38      H      0.872170000000     0.226920000000     0.434780000000     0.0510014  
H39      H      0.878720000000     0.180650000000     0.418490000000     0.050901   
H40      H      0.894580000000     0.211290000000     0.338630000000     0.0506662  
H41      H      0.862870000000     0.395720000000     0.493360000000     0.0510861  
H42      H      0.878360000000     0.315570000000     0.523440000000     0.050984   
H43      H      0.871790000000     0.331850000000     0.569710000000     0.0509138  
H44      H      0.855990000000     0.411720000000     0.539090000000     0.0507173  
H45      H      0.923820000000     0.361080000000     0.748920000000     0.0509905  
H46      H      0.843670000000     0.376610000000     0.778990000000     0.0511071  
H47      H      0.827670000000     0.383470000000     0.733260000000     0.0506681  
H48      H      0.907540000000     0.367620000000     0.702650000000     0.0509277  
H49      H      0.906770000000     0.507020000000     0.873770000000     0.0511109  
H50      H      0.826620000000     0.476960000000     0.889300000000     0.0510033  
H51      H      0.842890000000     0.430680000000     0.882740000000     0.0508938  
H52      H      0.922770000000     0.461290000000     0.866890000000     0.0506554  
H53      H      0.843710000000     0.601770000000     0.743390000000     0.051096   
H54      H      0.923860000000     0.617290000000     0.773460000000     0.0510101  
H55      H      0.907580000000     0.610750000000     0.819730000000     0.0508844  
H56      H      0.827700000000     0.594920000000     0.789120000000     0.0506962  
H57      H      0.842910000000     0.547700000000     0.639640000000     0.0509156  
H58      H      0.922770000000     0.517070000000     0.655500000000     0.050728   
H59      H      0.906770000000     0.471340000000     0.648610000000     0.0510547  
H60      H      0.826620000000     0.501430000000     0.633070000000     0.0509798  
H61      H      0.887660000000     0.756990000000     0.667740000000     0.0511032  
H62      H      0.872100000000     0.726900000000     0.587610000000     0.0510116  
H63      H      0.878660000000     0.680630000000     0.603890000000     0.0508931  
H64      H      0.894540000000     0.711260000000     0.683740000000     0.0506926  
H65      H      0.722350000000     0.661770000000     0.905520000000     0.050708   
H66      H      0.691720000000     0.581910000000     0.889660000000     0.0509058  
H67      H      0.737990000000     0.565620000000     0.883110000000     0.0510007  
H68      H      0.768080000000     0.645760000000     0.898650000000     0.0510861  
H69      H      0.862770000000     0.082660000000     0.993340000000     0.0509653  
H70      H      0.878360000000     0.162790000000     0.023440000000     0.0510189  
H71      H      0.871830000000     0.146500000000     0.069710000000     0.0509206  
H72      H      0.855920000000     0.066650000000     0.039070000000     0.0507073  
H73      H      0.872100000000     0.251460000000     0.934790000000     0.0509878  
H74      H      0.887590000000     0.221380000000     0.854640000000     0.0511125  
H75      H      0.894460000000     0.267110000000     0.838640000000     0.0506948  
H76      H      0.878650000000     0.297730000000     0.918510000000     0.0508818  
H77      H      0.941650000000     0.117620000000     0.853850000000     0.0508935  
H78      H      0.972290000000     0.133460000000     0.933710000000     0.0506713  
H79      H      0.018010000000     0.126550000000     0.917700000000     0.0510885  
H80      H      0.987920000000     0.111030000000     0.837570000000     0.0509971  
H81      H      0.482430000000     0.626580000000     0.917750000000     0.0510981  
H82      H      0.512520000000     0.611070000000     0.837610000000     0.0510117  
H83      H      0.558790000000     0.617650000000     0.853890000000     0.0508767  
H84      H      0.528150000000     0.633480000000     0.933750000000     0.0506705  
H85      H      0.378360000000     0.815520000000     0.023450000000     0.0510267  
H86      H      0.362790000000     0.895660000000     0.993370000000     0.051005   
H87      H      0.355950000000     0.911670000000     0.039100000000     0.0507128  
H88      H      0.371830000000     0.831810000000     0.069720000000     0.0509177  
H89      H      0.387640000000     0.756940000000     0.854660000000     0.0510658  
H90      H      0.372130000000     0.726860000000     0.934810000000     0.050946   
H91      H      0.378690000000     0.680590000000     0.918530000000     0.0509115  
H92      H      0.394520000000     0.711220000000     0.838660000000     0.0507336  
H93      H      0.406760000000     0.471300000000     0.873730000000     0.0510855  
H94      H      0.326620000000     0.501390000000     0.889270000000     0.0510086  
H95      H      0.342920000000     0.547660000000     0.882740000000     0.0508865  
H96      H      0.422780000000     0.517020000000     0.866880000000     0.0506714  
H97      H      0.093640000000     0.971270000000     0.873770000000     0.0510821  
H98      H      0.173780000000     0.001360000000     0.889310000000     0.0509641  
H99      H      0.157500000000     0.047630000000     0.882750000000     0.0508982  
H100     H      0.077640000000     0.017000000000     0.866890000000     0.0507135  
H101     H      0.262450000000     0.912720000000     0.883090000000     0.051017   
H102     H      0.232370000000     0.832570000000     0.898640000000     0.0510609  
H103     H      0.278100000000     0.816570000000     0.905510000000     0.0507101  
H104     H      0.308720000000     0.896440000000     0.889640000000     0.0508707  
H105     H      0.327720000000     0.594900000000     0.733290000000     0.0506875  
H106     H      0.407600000000     0.610710000000     0.702680000000     0.0509172  
H107     H      0.423880000000     0.617240000000     0.748950000000     0.050996   
H108     H      0.343720000000     0.601750000000     0.779020000000     0.0510818  
H109     H      0.362940000000     0.582640000000     0.493400000000     0.0510871  
H110     H      0.378370000000     0.662810000000     0.523470000000     0.0510208  
H111     H      0.371800000000     0.646530000000     0.569740000000     0.0508861  
H112     H      0.356060000000     0.566640000000     0.539120000000     0.050699   
H113     H      0.262600000000     0.565520000000     0.383120000000     0.050962   
H114     H      0.232500000000     0.645670000000     0.398600000000     0.0511094  
H115     H      0.278220000000     0.661680000000     0.405470000000     0.0506913  
H116     H      0.308870000000     0.581820000000     0.389670000000     0.0509105  
H117     H      0.137700000000     0.582570000000     0.529000000000     0.0510544  
H118     H      0.122160000000     0.662710000000     0.498910000000     0.0509997  
H119     H      0.128740000000     0.646430000000     0.452640000000     0.0509121  
H120     H      0.144600000000     0.566570000000     0.483280000000     0.0507019  
H121     H      0.058780000000     0.617560000000     0.668490000000     0.0509165  
H122     H      0.028140000000     0.633430000000     0.588640000000     0.050704   
H123     H      0.982410000000     0.626580000000     0.604650000000     0.0510916  
H124     H      0.012510000000     0.611020000000     0.684780000000     0.0509594  
H125     H      0.191730000000     0.581820000000     0.632740000000     0.0508861  
H126     H      0.222340000000     0.661690000000     0.616880000000     0.0507071  
H127     H      0.268070000000     0.645700000000     0.623750000000     0.0510645  
H128     H      0.238010000000     0.565550000000     0.639300000000     0.0509858  
H129     H      0.691690000000     0.396520000000     0.632680000000     0.0508948  
H130     H      0.722310000000     0.316650000000     0.616850000000     0.0506807  
H131     H      0.768040000000     0.332650000000     0.623730000000     0.0510991  
H132     H      0.737970000000     0.412790000000     0.639240000000     0.0510075  
H133     H      0.423810000000     0.361010000000     0.773390000000     0.0509955  
H134     H      0.343670000000     0.376610000000     0.743300000000     0.0511046  
H135     H      0.327670000000     0.383470000000     0.789030000000     0.0506623  
H136     H      0.407520000000     0.367560000000     0.819660000000     0.0509002  
H137     H      0.482390000000     0.351730000000     0.604600000000     0.0511171  
H138     H      0.512480000000     0.367280000000     0.684730000000     0.0509798  
H139     H      0.558750000000     0.360740000000     0.668440000000     0.0509037  
H140     H      0.528110000000     0.344880000000     0.588580000000     0.0506579  
H141     H      0.342910000000     0.430660000000     0.639580000000     0.0508709  
H142     H      0.422780000000     0.461260000000     0.655470000000     0.0506958  
H143     H      0.406790000000     0.506990000000     0.648610000000     0.0510697  
H144     H      0.326640000000     0.476930000000     0.633050000000     0.0509916  
H145     H      0.343770000000     0.876550000000     0.279010000000     0.051126   
H146     H      0.423920000000     0.861050000000     0.248920000000     0.0510133  
H147     H      0.407630000000     0.867590000000     0.202650000000     0.050894   
H148     H      0.327760000000     0.883420000000     0.233290000000     0.0506819  
H149     H      0.482480000000     0.851760000000     0.417730000000     0.0510971  
H150     H      0.512580000000     0.867280000000     0.337590000000     0.0510156  
H151     H      0.558850000000     0.860740000000     0.353890000000     0.0508977  
H152     H      0.528210000000     0.844900000000     0.433750000000     0.050698   
H153     H      0.394610000000     0.767060000000     0.338660000000     0.0507034  
H154     H      0.378750000000     0.797710000000     0.418510000000     0.0509135  
H155     H      0.372200000000     0.751430000000     0.434800000000     0.0510063  
H156     H      0.387740000000     0.721340000000     0.354670000000     0.0510783  
H157     H      0.422850000000     0.961260000000     0.366870000000     0.0507423  
H158     H      0.342980000000     0.930630000000     0.382720000000     0.0509241  
H159     H      0.326690000000     0.976900000000     0.389270000000     0.0510132  
H160     H      0.406840000000     0.006990000000     0.373730000000     0.0509829  
H161     H      0.826690000000     0.001440000000     0.389290000000     0.0509753  
H162     H      0.906840000000     0.971370000000     0.373790000000     0.051108   
H163     H      0.922840000000     0.017100000000     0.366900000000     0.0506814  
H164     H      0.842960000000     0.047710000000     0.382730000000     0.0508836  
H165     H      0.768140000000     0.832660000000     0.398650000000     0.0511048  
H166     H      0.738060000000     0.912800000000     0.383110000000     0.0510004  
H167     H      0.691780000000     0.896520000000     0.389670000000     0.0509216  
H168     H      0.722410000000     0.816660000000     0.405540000000     0.0507102  
H169     H      0.856030000000     0.911720000000     0.483300000000     0.0506823  
H170     H      0.871830000000     0.831840000000     0.452680000000     0.0508877  
H171     H      0.878350000000     0.815550000000     0.498960000000     0.0510052  
H172     H      0.862870000000     0.895710000000     0.529030000000     0.0511209  
H173     H      0.621830000000     0.297760000000     0.103840000000     0.0508887  
H174     H      0.605960000000     0.267150000000     0.183700000000     0.0507336  
H175     H      0.612840000000     0.221420000000     0.167710000000     0.051061   
H176     H      0.628390000000     0.251490000000     0.087570000000     0.0510318  
H177     H      0.673860000000     0.476970000000     0.133050000000     0.0510133  
H178     H      0.593730000000     0.507070000000     0.148640000000     0.0510925  
H179     H      0.577720000000     0.461340000000     0.155490000000     0.0507232  
H180     H      0.657570000000     0.430700000000     0.139590000000     0.0508803  
H181     H      0.644540000000     0.566700000000     0.039120000000     0.0507577  
H182     H      0.628720000000     0.646570000000     0.069740000000     0.0508825  
H183     H      0.622160000000     0.662850000000     0.023470000000     0.0510306  
H184     H      0.637660000000     0.582700000000     0.993390000000     0.05097    
H185     H      0.732470000000     0.332650000000     0.398570000000     0.0511022  
H186     H      0.762560000000     0.412790000000     0.383050000000     0.0509735  
H187     H      0.808830000000     0.396510000000     0.389620000000     0.0509156  
H188     H      0.778200000000     0.316640000000     0.405450000000     0.0506877  
H189     H      0.628730000000     0.331860000000     0.452590000000     0.0509064  
H190     H      0.644530000000     0.411730000000     0.483220000000     0.0507141  
H191     H      0.637640000000     0.395730000000     0.528940000000     0.0510753  
H192     H      0.622160000000     0.315580000000     0.498860000000     0.0510006  
H193     H      0.672810000000     0.383500000000     0.289040000000     0.0507065  
H194     H      0.592950000000     0.367670000000     0.319680000000     0.0508922  
H195     H      0.576650000000     0.361130000000     0.273410000000     0.0509941  
H196     H      0.656800000000     0.376640000000     0.243320000000     0.0511031  
H197     H      0.518150000000     0.626640000000     0.417750000000     0.051096   
H198     H      0.488070000000     0.611090000000     0.337610000000     0.0509946  
H199     H      0.441790000000     0.617630000000     0.353890000000     0.0508797  
H200     H      0.472420000000     0.633500000000     0.433750000000     0.0506911  
H201     H      0.576710000000     0.617350000000     0.248960000000     0.0509698  
H202     H      0.656860000000     0.601800000000     0.279020000000     0.0510847  
H203     H      0.672850000000     0.594930000000     0.233290000000     0.0507147  
H204     H      0.592980000000     0.610800000000     0.202680000000     0.0509011  
H205     H      0.657660000000     0.547720000000     0.382730000000     0.0508912  
H206     H      0.577780000000     0.517120000000     0.366900000000     0.0506932  
H207     H      0.593770000000     0.471390000000     0.373750000000     0.0510819  
H208     H      0.673930000000     0.501440000000     0.389270000000     0.0510072  
H209     H      0.621880000000     0.680670000000     0.418550000000     0.0508943  
H210     H      0.606070000000     0.711300000000     0.338680000000     0.0507062  
H211     H      0.612930000000     0.757030000000     0.354690000000     0.0510987  
H212     H      0.628420000000     0.726940000000     0.434840000000     0.0510218  
H213     H      0.843760000000     0.876570000000     0.243400000000     0.0511143  
H214     H      0.923930000000     0.861110000000     0.273460000000     0.0510264  
H215     H      0.907650000000     0.867660000000     0.319740000000     0.0508974  
H216     H      0.827770000000     0.883440000000     0.289130000000     0.050693   
H217     H      0.922830000000     0.961280000000     0.155470000000     0.050771   
H218     H      0.842960000000     0.930650000000     0.139660000000     0.0509134  
H219     H      0.826670000000     0.976910000000     0.133100000000     0.0510331  
H220     H      0.906820000000     0.007000000000     0.148580000000     0.0509599  
H221     H      0.518020000000     0.851790000000     0.917740000000     0.0510885  
H222     H      0.487940000000     0.867270000000     0.837590000000     0.0509871  
H223     H      0.441670000000     0.860690000000     0.853860000000     0.0509152  
H224     H      0.472290000000     0.844890000000     0.933740000000     0.0506817  
H225     H      0.605950000000     0.767140000000     0.838670000000     0.050699   
H226     H      0.621760000000     0.797770000000     0.918540000000     0.0509081  
H227     H      0.628320000000     0.751500000000     0.934830000000     0.0509526  
H228     H      0.612830000000     0.721410000000     0.854680000000     0.0511009  
H229     H      0.732400000000     0.832660000000     0.623810000000     0.0510713  
H230     H      0.762500000000     0.912800000000     0.639330000000     0.0510179  
H231     H      0.808770000000     0.896510000000     0.632770000000     0.05091    
H232     H      0.778120000000     0.816650000000     0.616930000000     0.0507133  
H233     H      0.628690000000     0.831890000000     0.569760000000     0.0509163  
H234     H      0.644550000000     0.911750000000     0.539130000000     0.0507177  
H235     H      0.637700000000     0.895740000000     0.493400000000     0.0511061  
H236     H      0.622160000000     0.815610000000     0.523490000000     0.0509861  
H237     H      0.672760000000     0.883530000000     0.733320000000     0.0507252  
H238     H      0.592900000000     0.867660000000     0.702680000000     0.050907   
H239     H      0.576610000000     0.861110000000     0.748950000000     0.0509907  
H240     H      0.656750000000     0.876660000000     0.779050000000     0.0510829  
H241     H      0.987980000000     0.867230000000     0.684820000000     0.0510105  
H242     H      0.018050000000     0.851690000000     0.604670000000     0.0510715  
H243     H      0.972320000000     0.844830000000     0.588670000000     0.05071    
H244     H      0.941700000000     0.860690000000     0.668530000000     0.0509131  
H245     H      0.156760000000     0.876500000000     0.743400000000     0.0510867  
H246     H      0.076600000000     0.860990000000     0.773460000000     0.0509785  
H247     H      0.092870000000     0.867540000000     0.819730000000     0.0509076  
H248     H      0.172750000000     0.883370000000     0.789130000000     0.0507305  
H249     H      0.121780000000     0.797650000000     0.603860000000     0.0509167  
H250     H      0.105960000000     0.767000000000     0.683720000000     0.0507128  
H251     H      0.112830000000     0.721280000000     0.667710000000     0.0510816  
H252     H      0.128330000000     0.751380000000     0.587570000000     0.0509902  
H253     H      0.077690000000     0.961190000000     0.655450000000     0.0507238  
H254     H      0.157580000000     0.930570000000     0.639670000000     0.0509287  
H255     H      0.173850000000     0.976850000000     0.633110000000     0.0510348  
H256     H      0.093690000000     0.006910000000     0.648570000000     0.0509773  
H257     H      0.378330000000     0.162780000000     0.498890000000     0.05101    
H258     H      0.362840000000     0.082630000000     0.528970000000     0.0510813  
H259     H      0.356000000000     0.066620000000     0.483240000000     0.0507091  
H260     H      0.371800000000     0.146500000000     0.452620000000     0.0508873  
H261     H      0.387600000000     0.221350000000     0.667680000000     0.051101   
H262     H      0.372080000000     0.251430000000     0.587530000000     0.051011   
H263     H      0.378630000000     0.297700000000     0.603810000000     0.0508904  
H264     H      0.394480000000     0.267070000000     0.683680000000     0.0506764  
H265     H      0.232370000000     0.145660000000     0.623750000000     0.0511084  
H266     H      0.262480000000     0.065520000000     0.639270000000     0.0509774  
H267     H      0.308750000000     0.081820000000     0.632700000000     0.0509073  
H268     H      0.278090000000     0.161680000000     0.616860000000     0.0506657  
H269     H      0.487940000000     0.111100000000     0.684770000000     0.0509954  
H270     H      0.518030000000     0.126620000000     0.604630000000     0.051092   
H271     H      0.472300000000     0.133480000000     0.588620000000     0.0507143  
H272     H      0.441670000000     0.117640000000     0.668480000000     0.0508961  
H273     H      0.657550000000     0.047750000000     0.639660000000     0.0508864  
H274     H      0.577680000000     0.017120000000     0.655470000000     0.050716   
H275     H      0.593690000000     0.971390000000     0.648610000000     0.0510954  
H276     H      0.673840000000     0.001480000000     0.633120000000     0.0509861  
H277     H      0.621750000000     0.180660000000     0.603830000000     0.0509003  
H278     H      0.605920000000     0.211310000000     0.683680000000     0.0506731  
H279     H      0.612800000000     0.257030000000     0.667670000000     0.051099   
H280     H      0.628310000000     0.226930000000     0.587530000000     0.0509923  
H281     H      0.732360000000     0.145760000000     0.898620000000     0.0511016  
H282     H      0.762440000000     0.065630000000     0.883050000000     0.0509749  
H283     H      0.808710000000     0.081900000000     0.889600000000     0.0509046  
H284     H      0.778090000000     0.161760000000     0.905500000000     0.0506757  
H285     H      0.673790000000     0.976980000000     0.889300000000     0.0510454  
H286     H      0.593640000000     0.007050000000     0.873760000000     0.0509474  
H287     H      0.577640000000     0.961320000000     0.866900000000     0.0507327  
H288     H      0.657510000000     0.930710000000     0.882760000000     0.0508771  
H289     H      0.576570000000     0.117330000000     0.773420000000     0.0510086  
H290     H      0.656730000000     0.101840000000     0.743360000000     0.0510722  
H291     H      0.672730000000     0.094980000000     0.789090000000     0.0506992  
H292     H      0.592850000000     0.110780000000     0.819700000000     0.0508901  
H293     H      0.644490000000     0.066700000000     0.983260000000     0.0507083  
H294     H      0.628660000000     0.146570000000     0.952650000000     0.0508848  
H295     H      0.622140000000     0.162850000000     0.998930000000     0.0509557  
H296     H      0.637650000000     0.082700000000     0.028990000000     0.0510518  
H297     H      0.871840000000     0.646530000000     0.952670000000     0.0508697  
H298     H      0.855980000000     0.566660000000     0.983290000000     0.0507193  
H299     H      0.862870000000     0.582660000000     0.029020000000     0.0510876  
H300     H      0.878410000000     0.662800000000     0.998940000000     0.0509846  
H301     H      0.887720000000     0.721360000000     0.167740000000     0.0510972  
H302     H      0.872210000000     0.751450000000     0.087590000000     0.0510067  
H303     H      0.878760000000     0.797720000000     0.103880000000     0.0509298  
H304     H      0.894580000000     0.767090000000     0.183750000000     0.0507078  
H305     H      0.808820000000     0.581880000000     0.132750000000     0.0509149  
H306     H      0.778210000000     0.661750000000     0.116900000000     0.0507069  
H307     H      0.732480000000     0.645750000000     0.123770000000     0.0511041  
H308     H      0.762550000000     0.565600000000     0.139300000000     0.050994   
H309     H      0.372200000000     0.226870000000     0.087510000000     0.0510104  
H310     H      0.387670000000     0.256960000000     0.167660000000     0.0511176  
H311     H      0.394530000000     0.211230000000     0.183670000000     0.0506815  
H312     H      0.378750000000     0.180600000000     0.103800000000     0.0509072  
H313     H      0.355920000000     0.411670000000     0.983220000000     0.0507366  
H314     H      0.371800000000     0.331810000000     0.952590000000     0.0509043  
H315     H      0.378370000000     0.315530000000     0.998860000000     0.050973   
H316     H      0.362810000000     0.395660000000     0.028940000000     0.0510546  
H317     H      0.472360000000     0.344890000000     0.088590000000     0.0507257  
H318     H      0.441710000000     0.360720000000     0.168450000000     0.0508753  
H319     H      0.487980000000     0.367300000000     0.184730000000     0.0509962  
H320     H      0.518090000000     0.351790000000     0.104600000000     0.0510944  
H321     H      0.018130000000     0.351700000000     0.417710000000     0.0510903  
H322     H      0.988040000000     0.367270000000     0.337580000000     0.0510004  
H323     H      0.941770000000     0.360740000000     0.353870000000     0.0508945  
H324     H      0.972400000000     0.344850000000     0.433720000000     0.0507195  
H325     H      0.077780000000     0.461210000000     0.366900000000     0.0507109  
H326     H      0.157660000000     0.430580000000     0.382710000000     0.0509002  
H327     H      0.173940000000     0.476840000000     0.389270000000     0.0509766  
H328     H      0.093790000000     0.506930000000     0.373780000000     0.0510729  
H329     H      0.106000000000     0.267020000000     0.338640000000     0.0507103  
H330     H      0.121860000000     0.297660000000     0.418500000000     0.0509098  
H331     H      0.128410000000     0.251390000000     0.434790000000     0.0509854  
H332     H      0.112870000000     0.221300000000     0.354650000000     0.0510914  
H333     H      0.156850000000     0.601640000000     0.243360000000     0.0510833  
H334     H      0.076710000000     0.617200000000     0.273460000000     0.0510028  
H335     H      0.093000000000     0.610660000000     0.319720000000     0.0508717  
H336     H      0.172860000000     0.594780000000     0.289090000000     0.0507186  
H337     H      0.988040000000     0.611020000000     0.184800000000     0.0509953  
H338     H      0.018130000000     0.626550000000     0.104670000000     0.0511003  
H339     H      0.972400000000     0.633450000000     0.088660000000     0.0507255  
H340     H      0.941770000000     0.617600000000     0.168520000000     0.0509165  
H341     H      0.122140000000     0.815480000000     0.998960000000     0.0509719  
H342     H      0.137670000000     0.895630000000     0.029040000000     0.051074   
H343     H      0.144510000000     0.911630000000     0.983310000000     0.0507295  
H344     H      0.128660000000     0.831770000000     0.952690000000     0.0509     
H345     H      0.112890000000     0.756900000000     0.167750000000     0.0510615  
H346     H      0.128410000000     0.726830000000     0.087600000000     0.0510518  
H347     H      0.121870000000     0.680550000000     0.103880000000     0.0508833  
H348     H      0.106030000000     0.711170000000     0.183750000000     0.0507235  
H349     H      0.222400000000     0.816560000000     0.116900000000     0.0506931  
H350     H      0.191750000000     0.896420000000     0.132770000000     0.0509133  
H351     H      0.238020000000     0.912710000000     0.139320000000     0.0509905  
H352     H      0.268120000000     0.832580000000     0.123770000000     0.0510978  
H353     H      0.012560000000     0.867250000000     0.184820000000     0.0510024  
H354     H      0.982470000000     0.851730000000     0.104680000000     0.0511167  
H355     H      0.028200000000     0.844820000000     0.088680000000     0.0507207  
H356     H      0.058830000000     0.860670000000     0.168540000000     0.0509222  
H357     H      0.262500000000     0.412700000000     0.139240000000     0.0510168  
H358     H      0.232440000000     0.332550000000     0.123680000000     0.0510729  
H359     H      0.278170000000     0.316560000000     0.116800000000     0.0507107  
H360     H      0.308780000000     0.396430000000     0.132680000000     0.0508872  
H361     H      0.173860000000     0.501320000000     0.133040000000     0.0510254  
H362     H      0.093720000000     0.471260000000     0.148620000000     0.0510713  
H363     H      0.077730000000     0.516990000000     0.155500000000     0.0507265  
H364     H      0.157600000000     0.547600000000     0.139600000000     0.0508894  
H365     H      0.076660000000     0.361000000000     0.248920000000     0.0510081  
H366     H      0.156830000000     0.376480000000     0.278960000000     0.0511106  
H367     H      0.172820000000     0.383340000000     0.233230000000     0.0507013  
H368     H      0.092930000000     0.367530000000     0.202640000000     0.0508949  
H369     H      0.112780000000     0.256920000000     0.854620000000     0.0510989  
H370     H      0.128310000000     0.226840000000     0.934760000000     0.0509618  
H371     H      0.121750000000     0.180570000000     0.918480000000     0.0509057  
H372     H      0.105900000000     0.211190000000     0.838620000000     0.0506965  
H373     H      0.137600000000     0.395620000000     0.993340000000     0.0509924  
H374     H      0.122120000000     0.315470000000     0.023410000000     0.0510322  
H375     H      0.128680000000     0.331740000000     0.069680000000     0.0509118  
H376     H      0.144480000000     0.411620000000     0.039070000000     0.0507304  
H377     H      0.028110000000     0.344830000000     0.933700000000     0.0506965  
H378     H      0.058740000000     0.360680000000     0.853840000000     0.0509099  
H379     H      0.012470000000     0.367260000000     0.837560000000     0.0509908  
H380     H      0.982380000000     0.351730000000     0.917700000000     0.0510987  
H381     H      0.191670000000     0.396430000000     0.889600000000     0.0509027  
H382     H      0.222310000000     0.316570000000     0.905430000000     0.0506713  
H383     H      0.268030000000     0.332580000000     0.898550000000     0.0511     
H384     H      0.237940000000     0.412730000000     0.883040000000     0.0509788  
N1       N      0.366560000000     0.101850000000     0.307840000000    -0.161082   
N2       N      0.385170000000     0.109560000000     0.254830000000    -0.160657   
N3       N      0.546970000000     0.126510000000     0.127450000000    -0.161014   
N4       N      0.493970000000     0.118770000000     0.146050000000    -0.160583   
N5       N      0.756590000000     0.104310000000     0.131590000000    -0.160596   
N6       N      0.703590000000     0.122940000000     0.123870000000    -0.161093   
N7       N      0.129850000000     0.124000000000     0.504870000000    -0.160559   
N8       N      0.137530000000     0.105380000000     0.557870000000    -0.161011   
N9       N      0.203590000000     0.122860000000     0.398490000000    -0.16109    
N10      N      0.256600000000     0.104260000000     0.390750000000    -0.160604   
N11      N      0.115300000000     0.109500000000     0.767490000000    -0.160617   
N12      N      0.133930000000     0.101790000000     0.714490000000    -0.161098   
N13      N      0.885160000000     0.109590000000     0.267480000000    -0.160554   
N14      N      0.866550000000     0.101870000000     0.214480000000    -0.161141   
N15      N      0.993960000000     0.118760000000     0.376280000000    -0.160672   
N16      N      0.046970000000     0.126450000000     0.394910000000    -0.161147   
N17      N      0.365400000000     0.982820000000     0.140770000000    -0.160499   
N18      N      0.384010000000     0.035830000000     0.148470000000    -0.161153   
N19      N      0.879870000000     0.245500000000     0.396060000000    -0.160632   
N20      N      0.887580000000     0.192500000000     0.377440000000    -0.161051   
N21      N      0.870680000000     0.354290000000     0.504870000000    -0.16059    
N22      N      0.862950000000     0.372900000000     0.557870000000    -0.16107    
N23      N      0.885090000000     0.368780000000     0.767490000000    -0.160576   
N24      N      0.866480000000     0.376490000000     0.714490000000    -0.161059   
N25      N      0.865350000000     0.495520000000     0.881600000000    -0.160542   
N26      N      0.883950000000     0.442520000000     0.873880000000    -0.16107    
N27      N      0.885130000000     0.609590000000     0.754890000000    -0.160527   
N28      N      0.866520000000     0.601900000000     0.807890000000    -0.161048   
N29      N      0.883960000000     0.535860000000     0.648500000000    -0.161068   
N30      N      0.865350000000     0.482860000000     0.640780000000    -0.160598   
N31      N      0.879810000000     0.745480000000     0.626320000000    -0.160639   
N32      N      0.887540000000     0.692480000000     0.644930000000    -0.161076   
N33      N      0.703560000000     0.622960000000     0.898530000000    -0.161087   
N34      N      0.756570000000     0.604340000000     0.890810000000    -0.160617   
N35      N      0.870630000000     0.124070000000     0.004860000000    -0.160517   
N36      N      0.862940000000     0.105450000000     0.057860000000    -0.16103    
N37      N      0.879780000000     0.232890000000     0.896060000000    -0.160535   
N38      N      0.887490000000     0.285890000000     0.877450000000    -0.161027   
N39      N      0.953500000000     0.126480000000     0.894900000000    -0.161128   
N40      N      0.006500000000     0.118720000000     0.876280000000    -0.160667   
N41      N      0.493940000000     0.618750000000     0.876330000000    -0.160593   
N42      N      0.546940000000     0.626510000000     0.894940000000    -0.161074   
N43      N      0.370640000000     0.854240000000     0.004880000000    -0.160487   
N44      N      0.362950000000     0.872860000000     0.057880000000    -0.161104   
N45      N      0.379820000000     0.745430000000     0.896090000000    -0.16062    
N46      N      0.387540000000     0.692430000000     0.877480000000    -0.161026   
N47      N      0.365340000000     0.482810000000     0.881560000000    -0.160586   
N48      N      0.383970000000     0.535810000000     0.873870000000    -0.161077   
N49      N      0.135060000000     0.982790000000     0.881610000000    -0.160514   
N50      N      0.116450000000     0.035790000000     0.873880000000    -0.161066   
N51      N      0.243880000000     0.873990000000     0.890800000000    -0.160567   
N52      N      0.296880000000     0.855390000000     0.898510000000    -0.161051   
N53      N      0.366540000000     0.601870000000     0.714510000000    -0.161113   
N54      N      0.385150000000     0.609560000000     0.767520000000    -0.160592   
N55      N      0.370720000000     0.624070000000     0.504900000000    -0.160555   
N56      N      0.362990000000     0.605470000000     0.557900000000    -0.161087   
N57      N      0.244020000000     0.604240000000     0.390790000000    -0.160579   
N58      N      0.297010000000     0.622870000000     0.398510000000    -0.161048   
N59      N      0.129870000000     0.623990000000     0.517490000000    -0.160664   
N60      N      0.137610000000     0.605380000000     0.464490000000    -0.161067   
N61      N      0.046930000000     0.626430000000     0.627440000000    -0.161034   
N62      N      0.993930000000     0.618740000000     0.646070000000    -0.16061    
N63      N      0.203560000000     0.622870000000     0.623870000000    -0.161128   
N64      N      0.256570000000     0.604280000000     0.631590000000    -0.160612   
N65      N      0.703530000000     0.355460000000     0.623820000000    -0.161158   
N66      N      0.756540000000     0.374070000000     0.631550000000    -0.160617   
N67      N      0.385090000000     0.368750000000     0.754820000000    -0.160552   
N68      N      0.366470000000     0.376450000000     0.807820000000    -0.161151   
N69      N      0.493900000000     0.359570000000     0.646010000000    -0.160533   
N70      N      0.546900000000     0.351880000000     0.627390000000    -0.161111   
N71      N      0.383960000000     0.442490000000     0.648460000000    -0.161083   
N72      N      0.365370000000     0.495490000000     0.640770000000    -0.160558   
N73      N      0.385200000000     0.868740000000     0.267500000000    -0.160606   
N74      N      0.366580000000     0.876440000000     0.214500000000    -0.161088   
N75      N      0.494000000000     0.859580000000     0.376310000000    -0.16059    
N76      N      0.547000000000     0.851880000000     0.394940000000    -0.161105   
N77      N      0.387620000000     0.785860000000     0.377460000000    -0.161099   
N78      N      0.379900000000     0.732860000000     0.396080000000    -0.160567   
N79      N      0.384030000000     0.942470000000     0.373860000000    -0.16106    
N80      N      0.365420000000     0.995470000000     0.381560000000    -0.160529   
N81      N      0.865420000000     0.982870000000     0.381610000000    -0.160571   
N82      N      0.884020000000     0.035880000000     0.373880000000    -0.161122   
N83      N      0.756630000000     0.874080000000     0.390820000000    -0.160549   
N84      N      0.703620000000     0.855470000000     0.398540000000    -0.161108   
N85      N      0.862990000000     0.872900000000     0.464520000000    -0.161151   
N86      N      0.870670000000     0.854280000000     0.517520000000    -0.160549   
N87      N      0.612960000000     0.285930000000     0.144890000000    -0.161089   
N88      N      0.620680000000     0.232920000000     0.126290000000    -0.160614   
N89      N      0.635150000000     0.495550000000     0.140780000000    -0.160527   
N90      N      0.616530000000     0.442550000000     0.148470000000    -0.161108   
N91      N      0.637570000000     0.605520000000     0.057900000000    -0.161065   
N92      N      0.629850000000     0.624130000000     0.004900000000    -0.160585   
N93      N      0.743980000000     0.374070000000     0.390740000000    -0.160565   
N94      N      0.796980000000     0.355460000000     0.398470000000    -0.161037   
N95      N      0.637570000000     0.372910000000     0.464440000000    -0.161079   
N96      N      0.629830000000     0.354300000000     0.517440000000    -0.16062    
N97      N      0.634000000000     0.376520000000     0.307830000000    -0.161126   
N98      N      0.615370000000     0.368820000000     0.254830000000    -0.160554   
N99      N      0.506640000000     0.618800000000     0.376330000000    -0.16057    
N100     N      0.453640000000     0.626500000000     0.394940000000    -0.161082   
N101     N      0.615430000000     0.609640000000     0.267520000000    -0.160595   
N102     N      0.634030000000     0.601930000000     0.214520000000    -0.161028   
N103     N      0.616600000000     0.535890000000     0.373880000000    -0.161062   
N104     N      0.635200000000     0.482880000000     0.381570000000    -0.160615   
N105     N      0.613030000000     0.692510000000     0.377500000000    -0.161075   
N106     N      0.620740000000     0.745520000000     0.396110000000    -0.160592   
N107     N      0.885200000000     0.868780000000     0.254900000000    -0.160555   
N108     N      0.866590000000     0.876490000000     0.307900000000    -0.1611     
N109     N      0.884010000000     0.942490000000     0.148500000000    -0.161028   
N110     N      0.865400000000     0.995490000000     0.140780000000    -0.160521   
N111     N      0.506510000000     0.859600000000     0.876310000000    -0.160603   
N112     N      0.453510000000     0.851850000000     0.894920000000    -0.161051   
N113     N      0.612920000000     0.785920000000     0.877490000000    -0.161043   
N114     N      0.620640000000     0.732920000000     0.896100000000    -0.16066    
N115     N      0.743920000000     0.874080000000     0.631630000000    -0.160629   
N116     N      0.796920000000     0.855460000000     0.623910000000    -0.161069   
N117     N      0.637560000000     0.872940000000     0.557910000000    -0.161019   
N118     N      0.629870000000     0.854320000000     0.504910000000    -0.160655   
N119     N      0.633950000000     0.876530000000     0.714530000000    -0.161107   
N120     N      0.615330000000     0.868820000000     0.767530000000    -0.160601   
N121     N      0.006550000000     0.859520000000     0.646090000000    -0.160564   
N122     N      0.953540000000     0.851830000000     0.627480000000    -0.161067   
N123     N      0.115330000000     0.868680000000     0.754900000000    -0.16059    
N124     N      0.133930000000     0.876390000000     0.807900000000    -0.161011   
N125     N      0.112930000000     0.785800000000     0.644910000000    -0.161083   
N126     N      0.120650000000     0.732800000000     0.626290000000    -0.1606     
N127     N      0.116510000000     0.942410000000     0.648500000000    -0.161024   
N128     N      0.135120000000     0.995410000000     0.640780000000    -0.160516   
N129     N      0.370650000000     0.124050000000     0.517460000000    -0.160522   
N130     N      0.362970000000     0.105440000000     0.464460000000    -0.161007   
N131     N      0.379770000000     0.232860000000     0.626260000000    -0.160516   
N132     N      0.387490000000     0.285860000000     0.644870000000    -0.16111    
N133     N      0.243900000000     0.104240000000     0.631580000000    -0.160567   
N134     N      0.296890000000     0.122870000000     0.623840000000    -0.161046   
N135     N      0.506520000000     0.118790000000     0.646050000000    -0.16064    
N136     N      0.453510000000     0.126500000000     0.627430000000    -0.161107   
N137     N      0.616500000000     0.035900000000     0.648500000000    -0.161034   
N138     N      0.635120000000     0.982900000000     0.640800000000    -0.160601   
N139     N      0.612900000000     0.192520000000     0.644880000000    -0.161124   
N140     N      0.620620000000     0.245510000000     0.626250000000    -0.160539   
N141     N      0.743870000000     0.104340000000     0.890770000000    -0.160568   
N142     N      0.796870000000     0.122950000000     0.898490000000    -0.161081   
N143     N      0.635060000000     0.995550000000     0.881590000000    -0.160522   
N144     N      0.616460000000     0.942550000000     0.873890000000    -0.161056   
N145     N      0.615300000000     0.109650000000     0.754860000000    -0.160619   
N146     N      0.633910000000     0.101940000000     0.807860000000    -0.16102    
N147     N      0.637500000000     0.105510000000     0.964490000000    -0.161036   
N148     N      0.629830000000     0.124130000000     0.017490000000    -0.160582   
N149     N      0.862970000000     0.605480000000     0.964510000000    -0.161092   
N150     N      0.870700000000     0.624080000000     0.017510000000    -0.160498   
N151     N      0.879900000000     0.732870000000     0.126320000000    -0.160634   
N152     N      0.887610000000     0.785880000000     0.144930000000    -0.16108    
N153     N      0.796990000000     0.622930000000     0.123890000000    -0.161069   
N154     N      0.743980000000     0.604330000000     0.131600000000    -0.160561   
N155     N      0.379870000000     0.245450000000     0.126230000000    -0.160624   
N156     N      0.387580000000     0.192450000000     0.144850000000    -0.161061   
N157     N      0.362920000000     0.372860000000     0.964430000000    -0.161042   
N158     N      0.370660000000     0.354250000000     0.017430000000    -0.160542   
N159     N      0.453570000000     0.351870000000     0.127400000000    -0.161077   
N160     N      0.506570000000     0.359610000000     0.146020000000    -0.160673   
N161     N      0.006620000000     0.359550000000     0.376290000000    -0.160627   
N162     N      0.953610000000     0.351860000000     0.394910000000    -0.161027   
N163     N      0.116600000000     0.442420000000     0.373860000000    -0.161079   
N164     N      0.135220000000     0.495420000000     0.381590000000    -0.160601   
N165     N      0.112990000000     0.285810000000     0.377450000000    -0.161097   
N166     N      0.120700000000     0.232810000000     0.396070000000    -0.160544   
N167     N      0.115430000000     0.609480000000     0.254880000000    -0.160575   
N168     N      0.134050000000     0.601780000000     0.307880000000    -0.161114   
N169     N      0.006610000000     0.618710000000     0.146090000000    -0.160599   
N170     N      0.953610000000     0.626460000000     0.127470000000    -0.161071   
N171     N      0.129840000000     0.854200000000     0.017530000000    -0.160549   
N172     N      0.137520000000     0.872820000000     0.964530000000    -0.160985   
N173     N      0.120710000000     0.745400000000     0.126330000000    -0.160626   
N174     N      0.113010000000     0.692390000000     0.144930000000    -0.161071   
N175     N      0.203600000000     0.855370000000     0.123900000000    -0.16111    
N176     N      0.256600000000     0.874000000000     0.131610000000    -0.160611   
N177     N      0.993980000000     0.859560000000     0.146100000000    -0.160628   
N178     N      0.046990000000     0.851800000000     0.127490000000    -0.161083   
N179     N      0.243940000000     0.373970000000     0.131530000000    -0.160577   
N180     N      0.296950000000     0.355380000000     0.123810000000    -0.161132   
N181     N      0.135140000000     0.482760000000     0.140760000000    -0.160555   
N182     N      0.116550000000     0.535760000000     0.148490000000    -0.161011   
N183     N      0.115390000000     0.368680000000     0.267480000000    -0.160627   
N184     N      0.133990000000     0.376370000000     0.214460000000    -0.161105   
N185     N      0.120610000000     0.245410000000     0.896040000000    -0.160614   
N186     N      0.112890000000     0.192410000000     0.877430000000    -0.161024   
N187     N      0.129800000000     0.354200000000     0.004840000000    -0.160521   
N188     N      0.137520000000     0.372800000000     0.057840000000    -0.161036   
N189     N      0.046900000000     0.351820000000     0.894890000000    -0.161099   
N190     N      0.993890000000     0.359560000000     0.876280000000    -0.160637   
N191     N      0.203520000000     0.355380000000     0.898450000000    -0.161069   
N192     N      0.256520000000     0.374010000000     0.890730000000    -0.160637   
O1       O      0.123850000000     0.320180000000     0.972760000000    -0.236386   
O2       O      0.076660000000     0.336270000000     0.927490000000    -0.248045   
O3       O      0.126570000000     0.277490000000     0.930050000000    -0.236496   
O4       O      0.173750000000     0.322770000000     0.913980000000    -0.248057   
O5       O      0.156990000000     0.361540000000     0.902480000000    -0.238486   
O6       O      0.120350000000     0.291700000000     0.889060000000    -0.245894   
O7       O      0.130050000000     0.361190000000     0.958560000000    -0.245873   
O8       O      0.093420000000     0.347780000000     0.888720000000    -0.238478   
O9       O      0.169150000000     0.450670000000     0.134780000000    -0.236391   
O10      O      0.127810000000     0.380390000000     0.167940000000    -0.23834    
O11      O      0.211850000000     0.407980000000     0.137500000000    -0.236413   
O12      O      0.153050000000     0.405410000000     0.087610000000    -0.248078   
O13      O      0.141560000000     0.366630000000     0.104360000000    -0.238505   
O14      O      0.197650000000     0.366980000000     0.131270000000    -0.245775   
O15      O      0.128150000000     0.436470000000     0.141020000000    -0.245753   
O16      O      0.166600000000     0.391880000000     0.184690000000    -0.248112   
O17      O      0.126660000000     0.777470000000     0.092310000000    -0.236463   
O18      O      0.093510000000     0.847760000000     0.133660000000    -0.238427   
O19      O      0.123910000000     0.820180000000     0.049610000000    -0.236318   
O20      O      0.173840000000     0.822760000000     0.108370000000    -0.248144   
O21      O      0.157070000000     0.861520000000     0.119890000000    -0.238398   
O22      O      0.130130000000     0.861180000000     0.063820000000    -0.245837   
O23      O      0.120450000000     0.791680000000     0.133310000000    -0.245802   
O24      O      0.076750000000     0.836250000000     0.094890000000    -0.248115   
O25      O      0.081410000000     0.615440000000     0.222810000000    -0.236524   
O26      O      0.108990000000     0.645870000000     0.138770000000    -0.238581   
O27      O      0.038690000000     0.612730000000     0.180100000000    -0.236456   
O28      O      0.083950000000     0.565540000000     0.164040000000    -0.248064   
O29      O      0.122720000000     0.582290000000     0.152500000000    -0.238371   
O30      O      0.052900000000     0.618950000000     0.139110000000    -0.245897   
O31      O      0.122400000000     0.609220000000     0.208590000000    -0.245911   
O32      O      0.097480000000     0.662620000000     0.177540000000    -0.248072   
O33      O      0.038690000000     0.365500000000     0.342270000000    -0.236298   
O34      O      0.083980000000     0.412660000000     0.358340000000    -0.248108   
O35      O      0.081380000000     0.362750000000     0.299560000000    -0.236363   
O36      O      0.108980000000     0.332330000000     0.383610000000    -0.238459   
O37      O      0.097460000000     0.315570000000     0.344840000000    -0.248046   
O38      O      0.122390000000     0.368950000000     0.313760000000    -0.2458     
O39      O      0.052910000000     0.359270000000     0.383270000000    -0.245735   
O40      O      0.122760000000     0.395900000000     0.369830000000    -0.238424   
O41      O      0.376640000000     0.320230000000     0.049510000000    -0.236414   
O42      O      0.423810000000     0.336310000000     0.094790000000    -0.248071   
O43      O      0.373930000000     0.277520000000     0.092210000000    -0.236398   
O44      O      0.326720000000     0.322780000000     0.108270000000    -0.248089   
O45      O      0.343470000000     0.361550000000     0.119790000000    -0.238417   
O46      O      0.380120000000     0.291730000000     0.133210000000    -0.245905   
O47      O      0.370400000000     0.361220000000     0.063720000000    -0.245836   
O48      O      0.407040000000     0.347820000000     0.133550000000    -0.238385   
O49      O      0.876680000000     0.658100000000     0.049590000000    -0.236282   
O50      O      0.843510000000     0.616760000000     0.119870000000    -0.238559   
O51      O      0.873960000000     0.700800000000     0.092300000000    -0.236489   
O52      O      0.923850000000     0.642010000000     0.094870000000    -0.248168   
O53      O      0.907090000000     0.630500000000     0.133640000000    -0.23843    
O54      O      0.880160000000     0.686590000000     0.133300000000    -0.245801   
O55      O      0.870450000000     0.617100000000     0.063800000000    -0.245824   
O56      O      0.826760000000     0.655530000000     0.108360000000    -0.248186   
O57      O      0.669080000000     0.027630000000     0.887540000000    -0.236503   
O58      O      0.666520000000     0.086420000000     0.837630000000    -0.248054   
O59      O      0.711790000000     0.070330000000     0.884800000000    -0.236453   
O60      O      0.653010000000     0.072900000000     0.934710000000    -0.248062   
O61      O      0.641510000000     0.111680000000     0.917960000000    -0.238381   
O62      O      0.697580000000     0.111330000000     0.891030000000    -0.245791   
O63      O      0.628080000000     0.041840000000     0.881320000000    -0.245804   
O64      O      0.627730000000     0.097910000000     0.854390000000    -0.238331   
O65      O      0.581290000000     0.115590000000     0.722780000000    -0.236565   
O66      O      0.608880000000     0.145990000000     0.638720000000    -0.238357   
O67      O      0.538590000000     0.112850000000     0.680070000000    -0.236492   
O68      O      0.583880000000     0.065670000000     0.664010000000    -0.248093   
O69      O      0.622650000000     0.082430000000     0.652510000000    -0.238486   
O70      O      0.552800000000     0.119060000000     0.639070000000    -0.245815   
O71      O      0.622290000000     0.109390000000     0.708580000000    -0.245963   
O72      O      0.597370000000     0.162760000000     0.677490000000    -0.248024   
O73      O      0.376570000000     0.158080000000     0.549540000000    -0.236338   
O74      O      0.343420000000     0.116720000000     0.619820000000    -0.238485   
O75      O      0.373820000000     0.200780000000     0.592240000000    -0.236433   
O76      O      0.423750000000     0.142010000000     0.594820000000    -0.248073   
O77      O      0.406980000000     0.130500000000     0.633590000000    -0.238393   
O78      O      0.380040000000     0.186570000000     0.633240000000    -0.245768   
O79      O      0.370370000000     0.117070000000     0.563750000000    -0.245766   
O80      O      0.326650000000     0.155490000000     0.608310000000    -0.248053   
O81      O      0.038630000000     0.865470000000     0.680110000000    -0.236464   
O82      O      0.108910000000     0.832320000000     0.638760000000    -0.238499   
O83      O      0.081320000000     0.862730000000     0.722810000000    -0.236301   
O84      O      0.122690000000     0.895890000000     0.652540000000    -0.238445   
O85      O      0.083900000000     0.912640000000     0.664020000000    -0.248145   
O86      O      0.122330000000     0.868940000000     0.708610000000    -0.245745   
O87      O      0.052840000000     0.859250000000     0.639110000000    -0.245784   
O88      O      0.097410000000     0.815550000000     0.677530000000    -0.248116   
O89      O      0.711850000000     0.908110000000     0.637590000000    -0.236345   
O90      O      0.641560000000     0.866780000000     0.604440000000    -0.238389   
O91      O      0.669140000000     0.950830000000     0.634870000000    -0.236404   
O92      O      0.627800000000     0.880540000000     0.668010000000    -0.238529   
O93      O      0.666560000000     0.892060000000     0.684770000000    -0.248211   
O94      O      0.628140000000     0.936620000000     0.641060000000    -0.245902   
O95      O      0.697630000000     0.867120000000     0.631380000000    -0.245855   
O96      O      0.653080000000     0.905550000000     0.587680000000    -0.248119   
O97      O      0.581300000000     0.862860000000     0.799600000000    -0.236344   
O98      O      0.608880000000     0.832450000000     0.883650000000    -0.238495   
O99      O      0.538590000000     0.865560000000     0.842300000000    -0.236513   
O100     O      0.583850000000     0.912770000000     0.858370000000    -0.24797    
O101     O      0.622630000000     0.896020000000     0.869890000000    -0.238335   
O102     O      0.552800000000     0.859370000000     0.883300000000    -0.245842   
O103     O      0.622300000000     0.869080000000     0.813820000000    -0.245734   
O104     O      0.597390000000     0.815680000000     0.844880000000    -0.248115   
O105     O      0.919210000000     0.862840000000     0.222820000000    -0.236553   
O106     O      0.891630000000     0.832400000000     0.138770000000    -0.238398   
O107     O      0.947700000000     0.859320000000     0.139120000000    -0.245841   
O108     O      0.916630000000     0.912730000000     0.164030000000    -0.248086   
O109     O      0.877850000000     0.895970000000     0.152540000000    -0.238418   
O110     O      0.961910000000     0.865540000000     0.180120000000    -0.236333   
O111     O      0.878200000000     0.869020000000     0.208620000000    -0.24586    
O112     O      0.903120000000     0.815640000000     0.177550000000    -0.248067   
O113     O      0.581420000000     0.615590000000     0.299610000000    -0.236432   
O114     O      0.622770000000     0.582420000000     0.369870000000    -0.238415   
O115     O      0.538720000000     0.612850000000     0.342310000000    -0.236329   
O116     O      0.597510000000     0.662750000000     0.344880000000    -0.248081   
O117     O      0.609010000000     0.645990000000     0.383660000000    -0.238404   
O118     O      0.552930000000     0.619070000000     0.383310000000    -0.245837   
O119     O      0.622420000000     0.609360000000     0.313810000000    -0.245765   
O120     O      0.583990000000     0.565670000000     0.358370000000    -0.248068   
O121     O      0.711900000000     0.408090000000     0.384780000000    -0.236479   
O122     O      0.627850000000     0.380530000000     0.354350000000    -0.238513   
O123     O      0.669210000000     0.450800000000     0.387510000000    -0.236534   
O124     O      0.653100000000     0.405520000000     0.434680000000    -0.248083   
O125     O      0.641610000000     0.366740000000     0.417920000000    -0.238413   
O126     O      0.628210000000     0.436600000000     0.381300000000    -0.24592    
O127     O      0.697690000000     0.367090000000     0.390990000000    -0.245823   
O128     O      0.666620000000     0.392030000000     0.337590000000    -0.248116   
O129     O      0.669180000000     0.527620000000     0.134820000000    -0.236347   
O130     O      0.641610000000     0.611680000000     0.104420000000    -0.238395   
O131     O      0.711890000000     0.570320000000     0.137560000000    -0.236436   
O132     O      0.666630000000     0.586390000000     0.184740000000    -0.248077   
O133     O      0.627860000000     0.597920000000     0.167990000000    -0.23838    
O134     O      0.697690000000     0.611320000000     0.131340000000    -0.245788   
O135     O      0.628180000000     0.541840000000     0.141060000000    -0.245824   
O136     O      0.653100000000     0.572900000000     0.087660000000    -0.24807    
O137     O      0.581350000000     0.362870000000     0.222760000000    -0.236388   
O138     O      0.622680000000     0.396020000000     0.152460000000    -0.238354   
O139     O      0.538630000000     0.365580000000     0.180040000000    -0.236569   
O140     O      0.608940000000     0.332450000000     0.138720000000    -0.238402   
O141     O      0.597410000000     0.315690000000     0.177490000000    -0.248111   
O142     O      0.552850000000     0.359380000000     0.139050000000    -0.245972   
O143     O      0.622350000000     0.369080000000     0.208540000000    -0.245864   
O144     O      0.583920000000     0.412790000000     0.164000000000    -0.248083   
O145     O      0.788710000000     0.908100000000     0.384850000000    -0.236297   
O146     O      0.858980000000     0.866740000000     0.418000000000    -0.238405   
O147     O      0.831400000000     0.950790000000     0.387560000000    -0.236326   
O148     O      0.833980000000     0.892000000000     0.337670000000    -0.248176   
O149     O      0.872760000000     0.880520000000     0.354420000000    -0.238557   
O150     O      0.872410000000     0.936590000000     0.381360000000    -0.245765   
O151     O      0.802920000000     0.867090000000     0.391070000000    -0.245758   
O152     O      0.847490000000     0.905520000000     0.434750000000    -0.248071   
O153     O      0.461930000000     0.865530000000     0.342280000000    -0.236317   
O154     O      0.391630000000     0.832380000000     0.383620000000    -0.238455   
O155     O      0.419220000000     0.862790000000     0.299570000000    -0.2364     
O156     O      0.416650000000     0.912710000000     0.358330000000    -0.248044   
O157     O      0.377880000000     0.895950000000     0.369850000000    -0.238462   
O158     O      0.378220000000     0.869000000000     0.313780000000    -0.245897   
O159     O      0.447710000000     0.859320000000     0.383280000000    -0.245743   
O160     O      0.403160000000     0.815610000000     0.344850000000    -0.248016   
O161     O      0.626680000000     0.777590000000     0.430140000000    -0.23637    
O162     O      0.657100000000     0.861640000000     0.402560000000    -0.238435   
O163     O      0.623930000000     0.820300000000     0.472840000000    -0.236381   
O164     O      0.576760000000     0.836360000000     0.427550000000    -0.248092   
O165     O      0.593530000000     0.847870000000     0.388790000000    -0.238584   
O166     O      0.630150000000     0.861300000000     0.458630000000    -0.245872   
O167     O      0.620480000000     0.791800000000     0.389140000000    -0.245856   
O168     O      0.673860000000     0.822870000000     0.414080000000    -0.248118   
O169     O      0.461820000000     0.365520000000     0.680040000000    -0.23635    
O170     O      0.377790000000     0.395960000000     0.652460000000    -0.238389   
O171     O      0.419110000000     0.362780000000     0.722740000000    -0.236452   
O172     O      0.403040000000     0.315620000000     0.677470000000    -0.248112   
O173     O      0.391520000000     0.332380000000     0.638700000000    -0.238416   
O174     O      0.378120000000     0.369030000000     0.708530000000    -0.245851   
O175     O      0.447610000000     0.359310000000     0.639040000000    -0.245859   
O176     O      0.416560000000     0.412710000000     0.663990000000    -0.24807    
O177     O      0.623870000000     0.320280000000     0.549510000000    -0.236364   
O178     O      0.657010000000     0.361630000000     0.619800000000    -0.238443   
O179     O      0.626580000000     0.277580000000     0.592220000000    -0.236362   
O180     O      0.576670000000     0.336350000000     0.594790000000    -0.248167   
O181     O      0.593430000000     0.347870000000     0.633550000000    -0.238503   
O182     O      0.620370000000     0.291800000000     0.633220000000    -0.245831   
O183     O      0.630060000000     0.361290000000     0.563720000000    -0.245816   
O184     O      0.673760000000     0.322860000000     0.608290000000    -0.24817    
O185     O      0.123890000000     0.658010000000     0.549560000000    -0.236506   
O186     O      0.093460000000     0.630430000000     0.633600000000    -0.238452   
O187     O      0.126600000000     0.700730000000     0.592270000000    -0.236515   
O188     O      0.173790000000     0.655470000000     0.608330000000    -0.24793    
O189     O      0.157040000000     0.616690000000     0.619850000000    -0.238382   
O190     O      0.120400000000     0.686510000000     0.633260000000    -0.245928   
O191     O      0.130110000000     0.617020000000     0.563770000000    -0.245907   
O192     O      0.076700000000     0.641960000000     0.594830000000    -0.247994   
O193     O      0.169240000000     0.527500000000     0.387540000000    -0.236401   
O194     O      0.127900000000     0.597780000000     0.354400000000    -0.238464   
O195     O      0.211950000000     0.570210000000     0.384840000000    -0.236422   
O196     O      0.153160000000     0.572770000000     0.434730000000    -0.248      
O197     O      0.141640000000     0.611540000000     0.417970000000    -0.238444   
O198     O      0.197730000000     0.611210000000     0.391030000000    -0.24589    
O199     O      0.128240000000     0.541710000000     0.381340000000    -0.245877   
O200     O      0.166670000000     0.586260000000     0.337640000000    -0.248053   
O201     O      0.373940000000     0.700790000000     0.430110000000    -0.236346   
O202     O      0.343540000000     0.616720000000     0.402540000000    -0.238493   
O203     O      0.376660000000     0.658090000000     0.472820000000    -0.236431   
O204     O      0.423870000000     0.642030000000     0.427550000000    -0.247984   
O205     O      0.407110000000     0.630500000000     0.388780000000    -0.238445   
O206     O      0.370490000000     0.617080000000     0.458620000000    -0.245912   
O207     O      0.380160000000     0.686570000000     0.389110000000    -0.245836   
O208     O      0.326770000000     0.655490000000     0.414030000000    -0.2481     
O209     O      0.331350000000     0.527580000000     0.634810000000    -0.236265   
O210     O      0.372710000000     0.597850000000     0.667990000000    -0.238444   
O211     O      0.288660000000     0.570270000000     0.637560000000    -0.236402   
O212     O      0.347470000000     0.572850000000     0.587660000000    -0.247999   
O213     O      0.358940000000     0.611640000000     0.604420000000    -0.238398   
O214     O      0.302860000000     0.611270000000     0.631340000000    -0.245775   
O215     O      0.372360000000     0.541780000000     0.641050000000    -0.245729   
O216     O      0.333930000000     0.586360000000     0.684740000000    -0.248133   
O217     O      0.169090000000     0.950710000000     0.887570000000    -0.236345   
O218     O      0.141510000000     0.866660000000     0.918000000000    -0.238345   
O219     O      0.211800000000     0.908010000000     0.884840000000    -0.236425   
O220     O      0.166530000000     0.891930000000     0.837670000000    -0.248165   
O221     O      0.127750000000     0.880420000000     0.854420000000    -0.238452   
O222     O      0.197590000000     0.867010000000     0.891070000000    -0.245785   
O223     O      0.128090000000     0.936500000000     0.881360000000    -0.245861   
O224     O      0.153030000000     0.905440000000     0.934760000000    -0.247994   
O225     O      0.331310000000     0.450740000000     0.887510000000    -0.236364   
O226     O      0.372630000000     0.380440000000     0.854340000000    -0.238467   
O227     O      0.288590000000     0.408030000000     0.884780000000    -0.236356   
O228     O      0.347370000000     0.405460000000     0.934680000000    -0.248134   
O229     O      0.358900000000     0.366690000000     0.917910000000    -0.238394   
O230     O      0.302810000000     0.367030000000     0.890980000000    -0.245781   
O231     O      0.372310000000     0.436520000000     0.881290000000    -0.245768   
O232     O      0.333870000000     0.391990000000     0.837590000000    -0.248137   
O233     O      0.376590000000     0.820220000000     0.972800000000    -0.236446   
O234     O      0.343410000000     0.861550000000     0.902520000000    -0.238448   
O235     O      0.373850000000     0.777510000000     0.930100000000    -0.236443   
O236     O      0.406990000000     0.847800000000     0.888750000000    -0.238538   
O237     O      0.423750000000     0.836310000000     0.927530000000    -0.248102   
O238     O      0.380060000000     0.791720000000     0.889100000000    -0.245789   
O239     O      0.370350000000     0.861220000000     0.958590000000    -0.245756   
O240     O      0.326660000000     0.822780000000     0.914040000000    -0.247994   
O241     O      0.461870000000     0.612780000000     0.842310000000    -0.236318   
O242     O      0.377820000000     0.582340000000     0.869880000000    -0.238479   
O243     O      0.419170000000     0.615490000000     0.799600000000    -0.236575   
O244     O      0.403080000000     0.662670000000     0.844870000000    -0.24802    
O245     O      0.391580000000     0.645910000000     0.883650000000    -0.238392   
O246     O      0.378170000000     0.609300000000     0.813800000000    -0.24596    
O247     O      0.447650000000     0.618990000000     0.883310000000    -0.245742   
O248     O      0.416590000000     0.565580000000     0.858360000000    -0.248097   
O249     O      0.876580000000     0.158100000000     0.972790000000    -0.236351   
O250     O      0.906970000000     0.130520000000     0.888740000000    -0.23844    
O251     O      0.873840000000     0.200810000000     0.930090000000    -0.2364     
O252     O      0.826650000000     0.155540000000     0.914030000000    -0.248103   
O253     O      0.843400000000     0.116780000000     0.902490000000    -0.238473   
O254     O      0.880040000000     0.186610000000     0.889080000000    -0.245867   
O255     O      0.870340000000     0.117100000000     0.958570000000    -0.245814   
O256     O      0.923740000000     0.142020000000     0.927500000000    -0.248176   
O257     O      0.623890000000     0.658150000000     0.972820000000    -0.236319   
O258     O      0.657040000000     0.616800000000     0.902540000000    -0.238446   
O259     O      0.626590000000     0.700850000000     0.930120000000    -0.236515   
O260     O      0.576700000000     0.642050000000     0.927550000000    -0.248049   
O261     O      0.593470000000     0.630550000000     0.888780000000    -0.2385     
O262     O      0.620400000000     0.686640000000     0.889120000000    -0.245832   
O263     O      0.630100000000     0.617140000000     0.958620000000    -0.24575    
O264     O      0.673800000000     0.655570000000     0.914060000000    -0.248182   
O265     O      0.876590000000     0.820260000000     0.549600000000    -0.236521   
O266     O      0.907010000000     0.847830000000     0.633650000000    -0.238399   
O267     O      0.873840000000     0.777550000000     0.592310000000    -0.236502   
O268     O      0.826670000000     0.822840000000     0.608370000000    -0.248026   
O269     O      0.843440000000     0.861610000000     0.619890000000    -0.238456   
O270     O      0.880070000000     0.791760000000     0.633300000000    -0.24591    
O271     O      0.870400000000     0.861260000000     0.563810000000    -0.245793   
O272     O      0.923770000000     0.836310000000     0.594880000000    -0.248144   
O273     O      0.961850000000     0.612790000000     0.680090000000    -0.236505   
O274     O      0.891550000000     0.645950000000     0.638770000000    -0.238444   
O275     O      0.919150000000     0.615540000000     0.722810000000    -0.236479   
O276     O      0.916570000000     0.565620000000     0.664040000000    -0.248086   
O277     O      0.877800000000     0.582380000000     0.652520000000    -0.238464   
O278     O      0.878150000000     0.609320000000     0.708600000000    -0.245797   
O279     O      0.947640000000     0.619020000000     0.639100000000    -0.245862   
O280     O      0.903080000000     0.662710000000     0.677530000000    -0.248088   
O281     O      0.788640000000     0.570320000000     0.884850000000    -0.236317   
O282     O      0.872690000000     0.597880000000     0.854420000000    -0.238388   
O283     O      0.831340000000     0.527610000000     0.887570000000    -0.236434   
O284     O      0.847430000000     0.572870000000     0.934750000000    -0.248061   
O285     O      0.858940000000     0.611640000000     0.917990000000    -0.238497   
O286     O      0.872340000000     0.541810000000     0.881350000000    -0.245793   
O287     O      0.802860000000     0.611320000000     0.891070000000    -0.245757   
O288     O      0.833910000000     0.586380000000     0.837670000000    -0.248046   
O289     O      0.919110000000     0.362830000000     0.799570000000    -0.236408   
O290     O      0.877770000000     0.395990000000     0.869860000000    -0.238363   
O291     O      0.961810000000     0.365540000000     0.842270000000    -0.236447   
O292     O      0.891520000000     0.332420000000     0.883620000000    -0.238369   
O293     O      0.903020000000     0.315660000000     0.844840000000    -0.247996   
O294     O      0.947610000000     0.359330000000     0.883270000000    -0.245817   
O295     O      0.878110000000     0.369050000000     0.813770000000    -0.245966   
O296     O      0.916550000000     0.412740000000     0.858340000000    -0.248002   
O297     O      0.876640000000     0.320270000000     0.472790000000    -0.236382   
O298     O      0.843510000000     0.361620000000     0.402500000000    -0.238457   
O299     O      0.873920000000     0.277570000000     0.430080000000    -0.236522   
O300     O      0.923840000000     0.336330000000     0.427520000000    -0.248072   
O301     O      0.907080000000     0.347860000000     0.388750000000    -0.238374   
O302     O      0.880140000000     0.291780000000     0.389090000000    -0.2459     
O303     O      0.870450000000     0.361280000000     0.458590000000    -0.245884   
O304     O      0.826750000000     0.322850000000     0.414010000000    -0.248048   
O305     O      0.831320000000     0.450780000000     0.634810000000    -0.236347   
O306     O      0.858910000000     0.366730000000     0.604390000000    -0.238408   
O307     O      0.788620000000     0.408090000000     0.637510000000    -0.236337   
O308     O      0.833880000000     0.392010000000     0.684710000000    -0.248006   
O309     O      0.872660000000     0.380500000000     0.667960000000    -0.238375   
O310     O      0.802820000000     0.367080000000     0.631310000000    -0.245789   
O311     O      0.872320000000     0.436570000000     0.641030000000    -0.245845   
O312     O      0.847420000000     0.405510000000     0.587630000000    -0.248079   
O313     O      0.331370000000     0.950740000000     0.134830000000    -0.236377   
O314     O      0.358960000000     0.866700000000     0.104410000000    -0.238484   
O315     O      0.288670000000     0.908020000000     0.137570000000    -0.2365     
O316     O      0.372730000000     0.880460000000     0.167970000000    -0.238335   
O317     O      0.333960000000     0.891970000000     0.184740000000    -0.247987   
O318     O      0.302890000000     0.867030000000     0.131350000000    -0.2459     
O319     O      0.372380000000     0.936540000000     0.141030000000    -0.245879   
O320     O      0.347430000000     0.905460000000     0.087650000000    -0.248134   
O321     O      0.919180000000     0.115550000000     0.299560000000    -0.236368   
O322     O      0.903120000000     0.162730000000     0.344830000000    -0.247985   
O323     O      0.961890000000     0.112820000000     0.342260000000    -0.236371   
O324     O      0.916620000000     0.065650000000     0.358340000000    -0.24803    
O325     O      0.877840000000     0.082400000000     0.369840000000    -0.238414   
O326     O      0.947680000000     0.119040000000     0.383260000000    -0.245873   
O327     O      0.878180000000     0.109330000000     0.313770000000    -0.245851   
O328     O      0.891600000000     0.145970000000     0.383600000000    -0.238453   
O329     O      0.081280000000     0.115450000000     0.799560000000    -0.236403   
O330     O      0.122610000000     0.082310000000     0.869860000000    -0.238501   
O331     O      0.038570000000     0.112750000000     0.842270000000    -0.236524   
O332     O      0.097350000000     0.162640000000     0.844830000000    -0.248059   
O333     O      0.108870000000     0.145880000000     0.883600000000    -0.238381   
O334     O      0.052780000000     0.118960000000     0.883260000000    -0.245922   
O335     O      0.122280000000     0.109240000000     0.813770000000    -0.245912   
O336     O      0.083840000000     0.065550000000     0.858340000000    -0.248083   
O337     O      0.123910000000     0.158020000000     0.472800000000    -0.236505   
O338     O      0.157070000000     0.116690000000     0.402510000000    -0.238444   
O339     O      0.126650000000     0.200730000000     0.430090000000    -0.236451   
O340     O      0.076740000000     0.141970000000     0.427510000000    -0.248151   
O341     O      0.093500000000     0.130450000000     0.388750000000    -0.238411   
O342     O      0.120430000000     0.186520000000     0.389090000000    -0.245784   
O343     O      0.130120000000     0.117020000000     0.458580000000    -0.24579    
O344     O      0.173830000000     0.155460000000     0.414030000000    -0.248119   
O345     O      0.211830000000     0.070210000000     0.637540000000    -0.236396   
O346     O      0.127770000000     0.097770000000     0.667960000000    -0.238393   
O347     O      0.169140000000     0.027500000000     0.634840000000    -0.236361   
O348     O      0.153060000000     0.072770000000     0.587640000000    -0.248162   
O349     O      0.141540000000     0.111540000000     0.604400000000    -0.238396   
O350     O      0.128130000000     0.041700000000     0.641020000000    -0.245784   
O351     O      0.197610000000     0.111210000000     0.631330000000    -0.245867   
O352     O      0.166540000000     0.086270000000     0.684730000000    -0.248073   
O353     O      0.788660000000     0.070280000000     0.137540000000    -0.236332   
O354     O      0.858950000000     0.111610000000     0.104390000000    -0.238425   
O355     O      0.831370000000     0.027570000000     0.134830000000    -0.23641    
O356     O      0.833940000000     0.086340000000     0.184720000000    -0.248169   
O357     O      0.872710000000     0.097860000000     0.167960000000    -0.238424   
O358     O      0.872370000000     0.041780000000     0.141010000000    -0.245896   
O359     O      0.802880000000     0.111280000000     0.131330000000    -0.245749   
O360     O      0.847410000000     0.072840000000     0.087630000000    -0.247992   
O361     O      0.623900000000     0.158140000000     0.049580000000    -0.236398   
O362     O      0.593500000000     0.130560000000     0.133620000000    -0.238451   
O363     O      0.626650000000     0.200840000000     0.092280000000    -0.236503   
O364     O      0.673830000000     0.155560000000     0.108340000000    -0.248012   
O365     O      0.657060000000     0.116790000000     0.119850000000    -0.238377   
O366     O      0.620420000000     0.186640000000     0.133270000000    -0.246006   
O367     O      0.630110000000     0.117140000000     0.063780000000    -0.245768   
O368     O      0.576740000000     0.142050000000     0.094850000000    -0.248174   
O369     O      0.288680000000     0.070240000000     0.384790000000    -0.236358   
O370     O      0.372730000000     0.097830000000     0.354360000000    -0.238428   
O371     O      0.331390000000     0.027550000000     0.387510000000    -0.236386   
O372     O      0.347460000000     0.072820000000     0.434690000000    -0.248073   
O373     O      0.358960000000     0.111600000000     0.417930000000    -0.238387   
O374     O      0.372390000000     0.041760000000     0.381300000000    -0.245864   
O375     O      0.302890000000     0.111240000000     0.391000000000    -0.245873   
O376     O      0.333950000000     0.086330000000     0.337600000000    -0.248088   
O377     O      0.419190000000     0.115510000000     0.222750000000    -0.23633    
O378     O      0.377840000000     0.082350000000     0.152480000000    -0.238442   
O379     O      0.461890000000     0.112800000000     0.180060000000    -0.23646    
O380     O      0.403090000000     0.162680000000     0.177470000000    -0.248133   
O381     O      0.391610000000     0.145920000000     0.138700000000    -0.238494   
O382     O      0.447680000000     0.119000000000     0.139060000000    -0.245821   
O383     O      0.378180000000     0.109300000000     0.208550000000    -0.245766   
O384     O      0.416620000000     0.065600000000     0.163980000000    -0.248106   


