data_structure

_audit_creation_method RASPA-1.0
_audit_creation_date 2023-5-23
_audit_author_name 'Poobodin Mano'

_cell_length_a    39.9809
_cell_length_b    39.9816
_cell_length_c    41.6145
_cell_angle_alpha 90.0027
_cell_angle_beta  90.0002
_cell_angle_gamma 89.9998
_cell_volume      66520.8

_symmetry_cell_setting          triclinic
_symmetry_space_group_name_Hall 'P 1'
_symmetry_space_group_name_H-M  'P 1'
_symmetry_Int_Tables_number     1

_symmetry_equiv_pos_as_xyz 'x,y,z'

loop_
_atom_site_label
_atom_site_type_symbol
_atom_site_fract_x
_atom_site_fract_y
_atom_site_fract_z
_atom_site_charge
C1       C      0.241910000000     0.437500000000     0.642660000000     0.342651   
C2       C      0.241880000000     0.310850000000     0.633190000000     0.342761   
C3       C      0.307110000000     0.375260000000     0.575370000000     0.345792   
C4       C      0.307260000000     0.373030000000     0.700310000000     0.345805   
C5       C      0.179600000000     0.060850000000     0.642770000000     0.342841   
C6       C      0.179570000000     0.187500000000     0.633310000000     0.342655   
C7       C      0.114220000000     0.123030000000     0.575660000000     0.345928   
C8       C      0.114380000000     0.125260000000     0.700590000000     0.345864   
C9       C      0.272190000000     0.280120000000     0.392650000000     0.34265    
C10      C      0.398840000000     0.280090000000     0.383190000000     0.342759   
C11      C      0.334430000000     0.345320000000     0.325370000000     0.345948   
C12      C      0.336660000000     0.345480000000     0.450300000000     0.345799   
C13      C      0.022190000000     0.217780000000     0.383310000000     0.342646   
C14      C      0.148840000000     0.217810000000     0.392780000000     0.342749   
C15      C      0.084430000000     0.152580000000     0.450590000000     0.34594    
C16      C      0.086660000000     0.152420000000     0.325660000000     0.345801   
C17      C      0.399300000000     0.467780000000     0.892660000000     0.342585   
C18      C      0.272650000000     0.467810000000     0.883190000000     0.34275    
C19      C      0.337060000000     0.402580000000     0.825370000000     0.345994   
C20      C      0.334830000000     0.402430000000     0.950310000000     0.3458     
C21      C      0.022650000000     0.030090000000     0.892770000000     0.342754   
C22      C      0.149300000000     0.030120000000     0.883300000000     0.342582   
C23      C      0.084830000000     0.095480000000     0.825660000000     0.345755   
C24      C      0.087060000000     0.095320000000     0.950590000000     0.346002   
C25      C      0.991910000000     0.060400000000     0.133300000000     0.342643   
C26      C      0.991880000000     0.187050000000     0.142780000000     0.342743   
C27      C      0.057110000000     0.122640000000     0.200590000000     0.345829   
C28      C      0.057260000000     0.124870000000     0.075660000000     0.346062   
C29      C      0.429600000000     0.437050000000     0.133190000000     0.342843   
C30      C      0.429570000000     0.310400000000     0.142660000000     0.342646   
C31      C      0.364220000000     0.374870000000     0.200310000000     0.345971   
C32      C      0.364380000000     0.372640000000     0.075370000000     0.345874   
C33      C      0.494900000000     0.246410000000     0.144360000000     0.0349501  
C34      C      0.442220000000     0.219810000000     0.144190000000     0.0350692  
C35      C      0.426540000000     0.251040000000     0.144240000000     0.0349046  
C36      C      0.479220000000     0.277640000000     0.144250000000     0.035111   
C37      C      0.442260000000     0.027640000000     0.131720000000     0.0351221  
C38      C      0.494940000000     0.501030000000     0.131720000000     0.0348476  
C39      C      0.479260000000     0.469810000000     0.131770000000     0.0351205  
C40      C      0.426580000000     0.996410000000     0.131600000000     0.0349136  
C41      C      0.061980000000     0.132050000000     0.988430000000     0.0353414  
C42      C      0.101290000000     0.091960000000     0.005900000000     0.0351963  
C43      C      0.094040000000     0.099800000000     0.037840000000     0.0351781  
C44      C      0.054070000000     0.139250000000     0.020380000000     0.0351767  
C45      C      0.320450000000     0.405620000000     0.005590000000     0.0351978  
C46      C      0.359900000000     0.365660000000     0.988120000000     0.0352501  
C47      C      0.367740000000     0.358400000000     0.020070000000     0.0352179  
C48      C      0.327640000000     0.397710000000     0.037530000000     0.035247   
C49      C      0.213280000000     0.464790000000     0.881600000000     0.0348673  
C50      C      0.239890000000     0.017460000000     0.881770000000     0.0351969  
C51      C      0.208660000000     0.033150000000     0.881730000000     0.0348164  
C52      C      0.182060000000     0.480470000000     0.881710000000     0.0351679  
C53      C      0.432060000000     0.517430000000     0.894250000000     0.0351657  
C54      C      0.458660000000     0.464750000000     0.894240000000     0.034872   
C55      C      0.489890000000     0.980430000000     0.894190000000     0.0350621  
C56      C      0.463280000000     0.033110000000     0.894360000000     0.0348976  
C57      C      0.101040000000     0.155620000000     0.270380000000     0.0350897  
C58      C      0.061590000000     0.115660000000     0.287840000000     0.0353791  
C59      C      0.053740000000     0.108400000000     0.255900000000     0.0350967  
C60      C      0.093840000000     0.147710000000     0.238440000000     0.0353444  
C61      C      0.359510000000     0.382050000000     0.287530000000     0.0352494  
C62      C      0.320200000000     0.341960000000     0.270060000000     0.0352787  
C63      C      0.327450000000     0.349800000000     0.238120000000     0.0351836  
C64      C      0.367410000000     0.389250000000     0.255590000000     0.0352145  
C65      C      0.212820000000     0.283150000000     0.394240000000     0.0347865  
C66      C      0.239430000000     0.230470000000     0.394250000000     0.0351144  
C67      C      0.208210000000     0.214790000000     0.394360000000     0.0349008  
C68      C      0.181600000000     0.267460000000     0.394190000000     0.0352098  
C69      C      0.431600000000     0.230440000000     0.381770000000     0.0352119  
C70      C      0.458200000000     0.283110000000     0.381600000000     0.0349549  
C71      C      0.489430000000     0.267430000000     0.381720000000     0.0351147  
C72      C      0.462820000000     0.214750000000     0.381730000000     0.0347827  
C73      C      0.117410000000     0.108650000000     0.520380000000     0.0352037  
C74      C      0.077450000000     0.148100000000     0.537840000000     0.0352686  
C75      C      0.070190000000     0.155940000000     0.505900000000     0.0352213  
C76      C      0.109510000000     0.115850000000     0.488430000000     0.0352392  
C77      C      0.117740000000     0.139500000000     0.755900000000     0.035198   
C78      C      0.077640000000     0.100190000000     0.738430000000     0.0352296  
C79      C      0.070450000000     0.092280000000     0.770380000000     0.0352107  
C80      C      0.109900000000     0.132240000000     0.787840000000     0.0352689  
C81      C      0.343840000000     0.350190000000     0.537530000000     0.0353002  
C82      C      0.303740000000     0.389490000000     0.520070000000     0.0352537  
C83      C      0.311580000000     0.382240000000     0.488120000000     0.0352326  
C84      C      0.351040000000     0.342290000000     0.505580000000     0.0351924  
C85      C      0.344030000000     0.398100000000     0.738120000000     0.0352335  
C86      C      0.304070000000     0.358650000000     0.755590000000     0.0351717  
C87      C      0.311980000000     0.365850000000     0.787530000000     0.0353242  
C88      C      0.351290000000     0.405940000000     0.770070000000     0.0352312  
C89      C      0.192220000000     0.278090000000     0.631770000000     0.0350991  
C90      C      0.244900000000     0.251490000000     0.631600000000     0.0349545  
C91      C      0.229220000000     0.220260000000     0.631710000000     0.0351069  
C92      C      0.176540000000     0.246870000000     0.631730000000     0.0348605  
C93      C      0.192260000000     0.470260000000     0.644250000000     0.035128   
C94      C      0.244940000000     0.996870000000     0.644240000000     0.0348194  
C95      C      0.229260000000     0.028090000000     0.644190000000     0.0351349  
C96      C      0.176580000000     0.501490000000     0.644360000000     0.0349047  
C97      C      0.241910000000     0.937500000000     0.642660000000     0.342651   
C98      C      0.241880000000     0.810850000000     0.633190000000     0.342761   
C99      C      0.307100000000     0.875260000000     0.575370000000     0.345834   
C100     C      0.307260000000     0.873030000000     0.700310000000     0.345724   
C101     C      0.179600000000     0.560850000000     0.642770000000     0.342841   
C102     C      0.179570000000     0.687500000000     0.633310000000     0.342655   
C103     C      0.114220000000     0.623030000000     0.575660000000     0.34594    
C104     C      0.114380000000     0.625260000000     0.700590000000     0.345863   
C105     C      0.272190000000     0.780120000000     0.392650000000     0.34265    
C106     C      0.398840000000     0.780090000000     0.383190000000     0.342604   
C107     C      0.334430000000     0.845320000000     0.325370000000     0.345865   
C108     C      0.336660000000     0.845480000000     0.450300000000     0.3458     
C109     C      0.022190000000     0.717780000000     0.383310000000     0.342645   
C110     C      0.148840000000     0.717810000000     0.392780000000     0.342749   
C111     C      0.084430000000     0.652580000000     0.450590000000     0.345939   
C112     C      0.086660000000     0.652420000000     0.325660000000     0.345803   
C113     C      0.399300000000     0.967780000000     0.892660000000     0.342647   
C114     C      0.272650000000     0.967810000000     0.883190000000     0.342755   
C115     C      0.337060000000     0.902580000000     0.825370000000     0.345994   
C116     C      0.334830000000     0.902430000000     0.950310000000     0.34589    
C117     C      0.022650000000     0.530090000000     0.892770000000     0.342755   
C118     C      0.149300000000     0.530120000000     0.883300000000     0.342585   
C119     C      0.084830000000     0.595480000000     0.825660000000     0.345758   
C120     C      0.087060000000     0.595320000000     0.950590000000     0.346002   
C121     C      0.991910000000     0.560400000000     0.133300000000     0.342642   
C122     C      0.991880000000     0.687050000000     0.142780000000     0.342832   
C123     C      0.057110000000     0.622640000000     0.200590000000     0.345825   
C124     C      0.057260000000     0.624870000000     0.075660000000     0.346062   
C125     C      0.429600000000     0.937050000000     0.133190000000     0.342842   
C126     C      0.429570000000     0.810400000000     0.142660000000     0.342642   
C127     C      0.364220000000     0.874870000000     0.200310000000     0.345972   
C128     C      0.364380000000     0.872640000000     0.075370000000     0.345876   
C129     C      0.494900000000     0.746410000000     0.144360000000     0.0349176  
C130     C      0.442220000000     0.719810000000     0.144190000000     0.0351177  
C131     C      0.426540000000     0.751030000000     0.144240000000     0.0348246  
C132     C      0.479220000000     0.777640000000     0.144250000000     0.0351208  
C133     C      0.442260000000     0.527640000000     0.131720000000     0.0351207  
C134     C      0.494940000000     0.001030000000     0.131720000000     0.0348483  
C135     C      0.479260000000     0.969810000000     0.131770000000     0.0351206  
C136     C      0.426580000000     0.496410000000     0.131610000000     0.0349153  
C137     C      0.061980000000     0.632050000000     0.988430000000     0.0353413  
C138     C      0.101290000000     0.591960000000     0.005900000000     0.0351963  
C139     C      0.094040000000     0.599800000000     0.037840000000     0.0351781  
C140     C      0.054070000000     0.639250000000     0.020380000000     0.0351767  
C141     C      0.320450000000     0.905620000000     0.005590000000     0.035225   
C142     C      0.359900000000     0.865660000000     0.988120000000     0.0352443  
C143     C      0.367740000000     0.858400000000     0.020070000000     0.0352379  
C144     C      0.327640000000     0.897710000000     0.037530000000     0.0352351  
C145     C      0.213280000000     0.964790000000     0.881600000000     0.0348758  
C146     C      0.239890000000     0.517470000000     0.881770000000     0.0350623  
C147     C      0.208660000000     0.533150000000     0.881730000000     0.0349041  
C148     C      0.182060000000     0.980470000000     0.881710000000     0.035157   
C149     C      0.432050000000     0.017430000000     0.894250000000     0.0351342  
C150     C      0.458660000000     0.964750000000     0.894240000000     0.0349151  
C151     C      0.489890000000     0.480430000000     0.894190000000     0.0350759  
C152     C      0.463280000000     0.533110000000     0.894360000000     0.0348683  
C153     C      0.101040000000     0.655620000000     0.270380000000     0.0351286  
C154     C      0.061590000000     0.615660000000     0.287840000000     0.0353853  
C155     C      0.053740000000     0.608400000000     0.255900000000     0.0350922  
C156     C      0.093850000000     0.647710000000     0.238440000000     0.0352676  
C157     C      0.359510000000     0.882050000000     0.287530000000     0.0352455  
C158     C      0.320200000000     0.841960000000     0.270060000000     0.0352751  
C159     C      0.327450000000     0.849800000000     0.238120000000     0.0351853  
C160     C      0.367410000000     0.889250000000     0.255590000000     0.0352166  
C161     C      0.212820000000     0.783150000000     0.394240000000     0.0347862  
C162     C      0.239430000000     0.730470000000     0.394250000000     0.0351142  
C163     C      0.208210000000     0.714790000000     0.394360000000     0.0349005  
C164     C      0.181600000000     0.767460000000     0.394190000000     0.0352096  
C165     C      0.431600000000     0.730440000000     0.381770000000     0.0351955  
C166     C      0.458210000000     0.783110000000     0.381600000000     0.0348802  
C167     C      0.489430000000     0.767430000000     0.381720000000     0.0351434  
C168     C      0.462820000000     0.714750000000     0.381730000000     0.0347922  
C169     C      0.117410000000     0.608660000000     0.520380000000     0.0353106  
C170     C      0.077450000000     0.648100000000     0.537840000000     0.0352244  
C171     C      0.070190000000     0.655940000000     0.505900000000     0.0352345  
C172     C      0.109510000000     0.615850000000     0.488430000000     0.0351839  
C173     C      0.117740000000     0.639500000000     0.755900000000     0.035193   
C174     C      0.077640000000     0.600190000000     0.738430000000     0.035195   
C175     C      0.070450000000     0.592290000000     0.770380000000     0.0352693  
C176     C      0.109900000000     0.632240000000     0.787840000000     0.0352717  
C177     C      0.343840000000     0.850190000000     0.537530000000     0.0352837  
C178     C      0.303740000000     0.889490000000     0.520070000000     0.0352424  
C179     C      0.311580000000     0.882240000000     0.488120000000     0.0352376  
C180     C      0.351040000000     0.842290000000     0.505580000000     0.0352003  
C181     C      0.344030000000     0.898100000000     0.738120000000     0.0352302  
C182     C      0.304070000000     0.858650000000     0.755590000000     0.0351683  
C183     C      0.311980000000     0.865850000000     0.787530000000     0.0353258  
C184     C      0.351290000000     0.905940000000     0.770070000000     0.035233   
C185     C      0.192220000000     0.778090000000     0.631770000000     0.0350988  
C186     C      0.244900000000     0.751490000000     0.631600000000     0.0349541  
C187     C      0.229220000000     0.720260000000     0.631710000000     0.0351066  
C188     C      0.176540000000     0.746870000000     0.631730000000     0.0348601  
C189     C      0.192260000000     0.970260000000     0.644250000000     0.0351265  
C190     C      0.244940000000     0.496870000000     0.644240000000     0.0348497  
C191     C      0.229260000000     0.528090000000     0.644190000000     0.035121   
C192     C      0.176580000000     0.001490000000     0.644360000000     0.0349068  
C193     C      0.741910000000     0.437500000000     0.642660000000     0.342651   
C194     C      0.741880000000     0.310850000000     0.633190000000     0.342757   
C195     C      0.807100000000     0.375260000000     0.575370000000     0.345869   
C196     C      0.807260000000     0.373030000000     0.700310000000     0.34572    
C197     C      0.679600000000     0.060850000000     0.642770000000     0.342842   
C198     C      0.679570000000     0.187500000000     0.633310000000     0.342657   
C199     C      0.614220000000     0.123030000000     0.575660000000     0.345853   
C200     C      0.614380000000     0.125260000000     0.700590000000     0.34586    
C201     C      0.772190000000     0.280120000000     0.392650000000     0.342698   
C202     C      0.898840000000     0.280090000000     0.383190000000     0.342603   
C203     C      0.834430000000     0.345320000000     0.325370000000     0.345776   
C204     C      0.836660000000     0.345480000000     0.450300000000     0.345799   
C205     C      0.522190000000     0.217780000000     0.383310000000     0.342641   
C206     C      0.648840000000     0.217810000000     0.392780000000     0.342745   
C207     C      0.584430000000     0.152580000000     0.450600000000     0.345697   
C208     C      0.586660000000     0.152430000000     0.325660000000     0.345792   
C209     C      0.899300000000     0.467780000000     0.892660000000     0.342734   
C210     C      0.772650000000     0.467810000000     0.883190000000     0.342755   
C211     C      0.837050000000     0.402580000000     0.825370000000     0.345999   
C212     C      0.834830000000     0.402430000000     0.950310000000     0.345891   
C213     C      0.522650000000     0.030090000000     0.892770000000     0.342751   
C214     C      0.649300000000     0.030120000000     0.883300000000     0.342635   
C215     C      0.584820000000     0.095480000000     0.825660000000     0.34584    
C216     C      0.587050000000     0.095320000000     0.950590000000     0.346003   
C217     C      0.491910000000     0.060400000000     0.133310000000     0.342658   
C218     C      0.491880000000     0.187050000000     0.142770000000     0.34276    
C219     C      0.557110000000     0.122640000000     0.200590000000     0.345834   
C220     C      0.557260000000     0.124870000000     0.075660000000     0.346056   
C221     C      0.929600000000     0.437050000000     0.133190000000     0.342843   
C222     C      0.929570000000     0.310400000000     0.142660000000     0.342646   
C223     C      0.864220000000     0.374870000000     0.200310000000     0.345813   
C224     C      0.864380000000     0.372640000000     0.075370000000     0.345955   
C225     C      0.994910000000     0.246410000000     0.144370000000     0.0348715  
C226     C      0.942230000000     0.219810000000     0.144190000000     0.0351672  
C227     C      0.926540000000     0.251040000000     0.144240000000     0.0348617  
C228     C      0.979220000000     0.277640000000     0.144250000000     0.035154   
C229     C      0.942260000000     0.027640000000     0.131710000000     0.0351194  
C230     C      0.994940000000     0.501030000000     0.131720000000     0.0348427  
C231     C      0.979260000000     0.469810000000     0.131770000000     0.0351223  
C232     C      0.926580000000     0.996410000000     0.131600000000     0.0349144  
C233     C      0.561970000000     0.132050000000     0.988430000000     0.0352815  
C234     C      0.601290000000     0.091960000000     0.005900000000     0.035203   
C235     C      0.594040000000     0.099800000000     0.037840000000     0.0352185  
C236     C      0.554070000000     0.139250000000     0.020380000000     0.0351718  
C237     C      0.820450000000     0.405620000000     0.005590000000     0.0352255  
C238     C      0.859900000000     0.365660000000     0.988120000000     0.035273   
C239     C      0.867740000000     0.358400000000     0.020070000000     0.0352085  
C240     C      0.827640000000     0.397710000000     0.037530000000     0.0352365  
C241     C      0.713280000000     0.464790000000     0.881600000000     0.0348809  
C242     C      0.739890000000     0.017460000000     0.881770000000     0.0351817  
C243     C      0.708660000000     0.033150000000     0.881730000000     0.034856   
C244     C      0.682060000000     0.480470000000     0.881710000000     0.0351522  
C245     C      0.932060000000     0.517430000000     0.894250000000     0.0351715  
C246     C      0.958670000000     0.464750000000     0.894240000000     0.0348016  
C247     C      0.989890000000     0.980430000000     0.894190000000     0.03509    
C248     C      0.963280000000     0.033110000000     0.894360000000     0.0348695  
C249     C      0.601040000000     0.155620000000     0.270380000000     0.0351358  
C250     C      0.561580000000     0.115660000000     0.287840000000     0.0352372  
C251     C      0.553740000000     0.108400000000     0.255900000000     0.035165   
C252     C      0.593840000000     0.147710000000     0.238440000000     0.0353291  
C253     C      0.859510000000     0.382050000000     0.287530000000     0.0352445  
C254     C      0.820200000000     0.341960000000     0.270060000000     0.035249   
C255     C      0.827450000000     0.349800000000     0.238120000000     0.035192   
C256     C      0.867410000000     0.389250000000     0.255590000000     0.0352095  
C257     C      0.712820000000     0.283150000000     0.394240000000     0.0349222  
C258     C      0.739430000000     0.230470000000     0.394250000000     0.0350603  
C259     C      0.708210000000     0.214790000000     0.394360000000     0.0349179  
C260     C      0.681600000000     0.267470000000     0.394190000000     0.0350707  
C261     C      0.931600000000     0.230440000000     0.381770000000     0.0351958  
C262     C      0.958210000000     0.283110000000     0.381600000000     0.0348818  
C263     C      0.989430000000     0.267430000000     0.381720000000     0.0351378  
C264     C      0.962820000000     0.214750000000     0.381720000000     0.0347898  
C265     C      0.617410000000     0.108660000000     0.520380000000     0.0352615  
C266     C      0.577450000000     0.148100000000     0.537840000000     0.0352822  
C267     C      0.570190000000     0.155940000000     0.505900000000     0.0351906  
C268     C      0.609510000000     0.115850000000     0.488430000000     0.0352107  
C269     C      0.617750000000     0.139500000000     0.755900000000     0.035135   
C270     C      0.577640000000     0.100190000000     0.738430000000     0.0352278  
C271     C      0.570450000000     0.092280000000     0.770380000000     0.0352126  
C272     C      0.609900000000     0.132240000000     0.787840000000     0.0353137  
C273     C      0.843840000000     0.350190000000     0.537530000000     0.0352603  
C274     C      0.803740000000     0.389490000000     0.520070000000     0.0352669  
C275     C      0.811580000000     0.382240000000     0.488120000000     0.0352281  
C276     C      0.851040000000     0.342290000000     0.505580000000     0.0352057  
C277     C      0.844040000000     0.398100000000     0.738120000000     0.0351499  
C278     C      0.804070000000     0.358650000000     0.755590000000     0.035166   
C279     C      0.811980000000     0.365850000000     0.787530000000     0.0353253  
C280     C      0.851290000000     0.405940000000     0.770070000000     0.0352802  
C281     C      0.692220000000     0.278090000000     0.631770000000     0.0350953  
C282     C      0.744910000000     0.251490000000     0.631600000000     0.0348767  
C283     C      0.729220000000     0.220260000000     0.631710000000     0.0351548  
C284     C      0.676540000000     0.246870000000     0.631730000000     0.034867   
C285     C      0.692260000000     0.470260000000     0.644250000000     0.0351269  
C286     C      0.744940000000     0.996870000000     0.644240000000     0.0348495  
C287     C      0.729260000000     0.028090000000     0.644190000000     0.035121   
C288     C      0.676580000000     0.501490000000     0.644360000000     0.0349066  
C289     C      0.741910000000     0.937500000000     0.642660000000     0.342651   
C290     C      0.741880000000     0.810850000000     0.633190000000     0.342762   
C291     C      0.807110000000     0.875260000000     0.575370000000     0.345788   
C292     C      0.807260000000     0.873030000000     0.700310000000     0.34596    
C293     C      0.679600000000     0.560850000000     0.642770000000     0.342841   
C294     C      0.679570000000     0.687500000000     0.633310000000     0.342654   
C295     C      0.614220000000     0.623030000000     0.575660000000     0.345931   
C296     C      0.614380000000     0.625260000000     0.700590000000     0.345944   
C297     C      0.772190000000     0.780120000000     0.392650000000     0.342698   
C298     C      0.898840000000     0.780090000000     0.383190000000     0.342758   
C299     C      0.834430000000     0.845320000000     0.325370000000     0.345864   
C300     C      0.836660000000     0.845480000000     0.450300000000     0.345801   
C301     C      0.522190000000     0.717780000000     0.383310000000     0.342641   
C302     C      0.648840000000     0.717810000000     0.392780000000     0.342744   
C303     C      0.584430000000     0.652580000000     0.450600000000     0.345856   
C304     C      0.586660000000     0.652430000000     0.325660000000     0.345928   
C305     C      0.899300000000     0.967780000000     0.892660000000     0.342586   
C306     C      0.772650000000     0.967810000000     0.883190000000     0.342754   
C307     C      0.837060000000     0.902580000000     0.825370000000     0.345995   
C308     C      0.834830000000     0.902430000000     0.950310000000     0.345889   
C309     C      0.522650000000     0.530090000000     0.892770000000     0.342749   
C310     C      0.649300000000     0.530120000000     0.883300000000     0.342579   
C311     C      0.584830000000     0.595480000000     0.825660000000     0.345848   
C312     C      0.587050000000     0.595320000000     0.950590000000     0.346005   
C313     C      0.491910000000     0.560400000000     0.133310000000     0.342657   
C314     C      0.491880000000     0.687050000000     0.142770000000     0.34285    
C315     C      0.557110000000     0.622640000000     0.200590000000     0.345828   
C316     C      0.557260000000     0.624870000000     0.075660000000     0.346033   
C317     C      0.929600000000     0.937050000000     0.133190000000     0.342843   
C318     C      0.929570000000     0.810400000000     0.142660000000     0.342644   
C319     C      0.864220000000     0.874870000000     0.200310000000     0.345815   
C320     C      0.864380000000     0.872640000000     0.075370000000     0.345956   
C321     C      0.994910000000     0.746410000000     0.144370000000     0.0348391  
C322     C      0.942230000000     0.719810000000     0.144190000000     0.0352159  
C323     C      0.926540000000     0.751030000000     0.144240000000     0.0347816  
C324     C      0.979220000000     0.777640000000     0.144250000000     0.035163   
C325     C      0.942260000000     0.527640000000     0.131710000000     0.0351196  
C326     C      0.994940000000     0.001030000000     0.131720000000     0.0348425  
C327     C      0.979260000000     0.969810000000     0.131770000000     0.0351222  
C328     C      0.926580000000     0.496410000000     0.131600000000     0.0349146  
C329     C      0.561980000000     0.632050000000     0.988430000000     0.0353464  
C330     C      0.601290000000     0.591960000000     0.005900000000     0.0351472  
C331     C      0.594030000000     0.599800000000     0.037840000000     0.0352983  
C332     C      0.554070000000     0.639250000000     0.020380000000     0.0351396  
C333     C      0.820450000000     0.905620000000     0.005590000000     0.0352001  
C334     C      0.859900000000     0.865660000000     0.988120000000     0.0352416  
C335     C      0.867740000000     0.858400000000     0.020070000000     0.0352425  
C336     C      0.827640000000     0.897710000000     0.037530000000     0.035249   
C337     C      0.713280000000     0.964790000000     0.881600000000     0.0348819  
C338     C      0.739890000000     0.517460000000     0.881770000000     0.0352242  
C339     C      0.708670000000     0.533150000000     0.881720000000     0.0347453  
C340     C      0.682060000000     0.980470000000     0.881710000000     0.0351473  
C341     C      0.932060000000     0.017430000000     0.894250000000     0.0351647  
C342     C      0.958660000000     0.964750000000     0.894240000000     0.0348661  
C343     C      0.989890000000     0.480430000000     0.894190000000     0.0351145  
C344     C      0.963280000000     0.533110000000     0.894360000000     0.0348708  
C345     C      0.601040000000     0.655620000000     0.270380000000     0.0351422  
C346     C      0.561590000000     0.615660000000     0.287840000000     0.035389   
C347     C      0.553740000000     0.608400000000     0.255900000000     0.0350919  
C348     C      0.593850000000     0.647710000000     0.238440000000     0.0352603  
C349     C      0.859510000000     0.882050000000     0.287530000000     0.0352473  
C350     C      0.820200000000     0.841960000000     0.270060000000     0.0352448  
C351     C      0.827450000000     0.849800000000     0.238120000000     0.0352102  
C352     C      0.867410000000     0.889250000000     0.255590000000     0.0352087  
C353     C      0.712820000000     0.783150000000     0.394240000000     0.0349217  
C354     C      0.739430000000     0.730470000000     0.394250000000     0.0350602  
C355     C      0.708210000000     0.714790000000     0.394360000000     0.0349177  
C356     C      0.681600000000     0.767470000000     0.394190000000     0.0350704  
C357     C      0.931600000000     0.730440000000     0.381770000000     0.0352128  
C358     C      0.958200000000     0.783110000000     0.381600000000     0.0349567  
C359     C      0.989430000000     0.767430000000     0.381720000000     0.0351095  
C360     C      0.962820000000     0.714750000000     0.381720000000     0.0347807  
C361     C      0.617410000000     0.608660000000     0.520380000000     0.0352555  
C362     C      0.577450000000     0.648100000000     0.537840000000     0.0352793  
C363     C      0.570190000000     0.655940000000     0.505900000000     0.0352001  
C364     C      0.609510000000     0.615850000000     0.488430000000     0.0352337  
C365     C      0.617740000000     0.639500000000     0.755900000000     0.0351851  
C366     C      0.577640000000     0.600190000000     0.738430000000     0.0351949  
C367     C      0.570450000000     0.592290000000     0.770380000000     0.0352737  
C368     C      0.609900000000     0.632240000000     0.787840000000     0.0352936  
C369     C      0.843840000000     0.850190000000     0.537530000000     0.0352966  
C370     C      0.803740000000     0.889500000000     0.520070000000     0.0351886  
C371     C      0.811580000000     0.882240000000     0.488120000000     0.0352702  
C372     C      0.851040000000     0.842290000000     0.505580000000     0.0351977  
C373     C      0.844040000000     0.898100000000     0.738120000000     0.0351623  
C374     C      0.804070000000     0.858650000000     0.755590000000     0.0351768  
C375     C      0.811980000000     0.865850000000     0.787530000000     0.0353262  
C376     C      0.851290000000     0.905940000000     0.770070000000     0.0352671  
C377     C      0.692220000000     0.778090000000     0.631770000000     0.0351128  
C378     C      0.744900000000     0.751490000000     0.631600000000     0.0349565  
C379     C      0.729220000000     0.720260000000     0.631710000000     0.0351056  
C380     C      0.676540000000     0.746870000000     0.631730000000     0.0348299  
C381     C      0.692260000000     0.970260000000     0.644250000000     0.0351276  
C382     C      0.744940000000     0.496870000000     0.644240000000     0.0348196  
C383     C      0.729260000000     0.528090000000     0.644190000000     0.0351349  
C384     C      0.676580000000     0.001490000000     0.644360000000     0.0349048  
Cd1      Cd     0.275920000000     0.374170000000     0.637870000000     0.51427    
Cd2      Cd     0.145560000000     0.124170000000     0.638090000000     0.514242   
Cd3      Cd     0.335520000000     0.314130000000     0.387870000000     0.514263   
Cd4      Cd     0.085520000000     0.183770000000     0.388090000000     0.514262   
Cd5      Cd     0.335970000000     0.433770000000     0.887880000000     0.514253   
Cd6      Cd     0.085970000000     0.064130000000     0.888090000000     0.514256   
Cd7      Cd     0.025920000000     0.123730000000     0.138090000000     0.514262   
Cd8      Cd     0.395570000000     0.373730000000     0.137870000000     0.514285   
Cd9      Cd     0.275920000000     0.874170000000     0.637870000000     0.514254   
Cd10     Cd     0.145560000000     0.624170000000     0.638090000000     0.514242   
Cd11     Cd     0.335520000000     0.814130000000     0.387870000000     0.514254   
Cd12     Cd     0.085520000000     0.683770000000     0.388090000000     0.514262   
Cd13     Cd     0.335970000000     0.933770000000     0.887880000000     0.514262   
Cd14     Cd     0.085970000000     0.564130000000     0.888090000000     0.514256   
Cd15     Cd     0.025920000000     0.623730000000     0.138090000000     0.514263   
Cd16     Cd     0.395560000000     0.873730000000     0.137870000000     0.514284   
Cd17     Cd     0.775920000000     0.374170000000     0.637870000000     0.514254   
Cd18     Cd     0.645570000000     0.124170000000     0.638090000000     0.514251   
Cd19     Cd     0.835520000000     0.314130000000     0.387870000000     0.514245   
Cd20     Cd     0.585520000000     0.183770000000     0.388090000000     0.514246   
Cd21     Cd     0.835970000000     0.433770000000     0.887880000000     0.514263   
Cd22     Cd     0.585970000000     0.064130000000     0.888090000000     0.514281   
Cd23     Cd     0.525920000000     0.123730000000     0.138090000000     0.51426    
Cd24     Cd     0.895570000000     0.373730000000     0.137870000000     0.514293   
Cd25     Cd     0.775920000000     0.874170000000     0.637870000000     0.514278   
Cd26     Cd     0.645560000000     0.624170000000     0.638090000000     0.514258   
Cd27     Cd     0.835520000000     0.814130000000     0.387870000000     0.514255   
Cd28     Cd     0.585520000000     0.683770000000     0.388090000000     0.514278   
Cd29     Cd     0.835970000000     0.933770000000     0.887880000000     0.514263   
Cd30     Cd     0.585970000000     0.564130000000     0.888090000000     0.514266   
Cd31     Cd     0.525920000000     0.623730000000     0.138090000000     0.51426    
Cd32     Cd     0.895570000000     0.873730000000     0.137870000000     0.514293   
H1       H      0.022020000000     0.245820000000     0.144370000000     0.0510566  
H2       H      0.426620000000     0.197630000000     0.144080000000     0.051075   
H3       H      0.399430000000     0.251630000000     0.144140000000     0.0510456  
H4       H      0.494830000000     0.299820000000     0.144190000000     0.05106    
H5       H      0.426650000000     0.049820000000     0.131780000000     0.0510583  
H6       H      0.022060000000     0.501630000000     0.131820000000     0.0510732  
H7       H      0.494860000000     0.447620000000     0.131880000000     0.0510706  
H8       H      0.399460000000     0.995820000000     0.131610000000     0.0510462  
H9       H      0.048470000000     0.145180000000     0.969680000000     0.0508774  
H10      H      0.119840000000     0.072770000000     0.001250000000     0.050268   
H11      H      0.107090000000     0.086220000000     0.056590000000     0.0509112  
H12      H      0.034910000000     0.157830000000     0.025030000000     0.0502891  
H13      H      0.301870000000     0.424780000000     0.000940000000     0.0502744  
H14      H      0.373480000000     0.352600000000     0.969370000000     0.0508895  
H15      H      0.386940000000     0.339860000000     0.024720000000     0.0502692  
H16      H      0.314510000000     0.411220000000     0.056280000000     0.0508889  
H17      H      0.213880000000     0.437670000000     0.881600000000     0.0510661  
H18      H      0.262080000000     0.033070000000     0.881890000000     0.0510466  
H19      H      0.208070000000     0.060260000000     0.881820000000     0.0510721  
H20      H      0.159870000000     0.464860000000     0.881770000000     0.0510529  
H21      H      0.409870000000     0.533040000000     0.894190000000     0.0510528  
H22      H      0.458070000000     0.437640000000     0.894140000000     0.0510582  
H23      H      0.512070000000     0.964830000000     0.894070000000     0.0510785  
H24      H      0.463880000000     0.060230000000     0.894360000000     0.0510566  
H25      H      0.119620000000     0.174770000000     0.275030000000     0.0503011  
H26      H      0.048000000000     0.102600000000     0.306590000000     0.0508493  
H27      H      0.034550000000     0.089860000000     0.251240000000     0.050302   
H28      H      0.106980000000     0.161220000000     0.219690000000     0.0508634  
H29      H      0.373010000000     0.395190000000     0.306280000000     0.0508833  
H30      H      0.301640000000     0.322760000000     0.274710000000     0.0502538  
H31      H      0.314400000000     0.336220000000     0.219370000000     0.0509002  
H32      H      0.386570000000     0.407830000000     0.250940000000     0.0502716  
H33      H      0.213420000000     0.310260000000     0.394140000000     0.0510836  
H34      H      0.261620000000     0.214870000000     0.394190000000     0.0510724  
H35      H      0.207610000000     0.187670000000     0.394360000000     0.0510572  
H36      H      0.159410000000     0.283070000000     0.394080000000     0.0510422  
H37      H      0.409410000000     0.214830000000     0.381880000000     0.0510412  
H38      H      0.457610000000     0.310230000000     0.381610000000     0.0510332  
H39      H      0.011620000000     0.283040000000     0.381780000000     0.0510637  
H40      H      0.463420000000     0.187640000000     0.381820000000     0.0510827  
H41      H      0.136570000000     0.090070000000     0.525030000000     0.0502858  
H42      H      0.064390000000     0.161680000000     0.556590000000     0.05088    
H43      H      0.051640000000     0.175140000000     0.501250000000     0.0502729  
H44      H      0.123010000000     0.102720000000     0.469680000000     0.0508972  
H45      H      0.136940000000     0.158040000000     0.751250000000     0.0502807  
H46      H      0.064510000000     0.086690000000     0.719680000000     0.050902   
H47      H      0.051860000000     0.073130000000     0.775030000000     0.0502821  
H48      H      0.123480000000     0.145300000000     0.806590000000     0.0508781  
H49      H      0.356980000000     0.336690000000     0.556280000000     0.0508734  
H50      H      0.284540000000     0.408040000000     0.524720000000     0.0502616  
H51      H      0.298000000000     0.395290000000     0.469370000000     0.0508965  
H52      H      0.369620000000     0.323130000000     0.500940000000     0.0502717  
H53      H      0.357090000000     0.411680000000     0.719370000000     0.0508883  
H54      H      0.284910000000     0.340070000000     0.750940000000     0.0502812  
H55      H      0.298470000000     0.352720000000     0.806280000000     0.0508761  
H56      H      0.369840000000     0.425130000000     0.774720000000     0.0502647  
H57      H      0.176620000000     0.300280000000     0.631890000000     0.0510754  
H58      H      0.272020000000     0.252080000000     0.631600000000     0.0510344  
H59      H      0.244830000000     0.198080000000     0.631770000000     0.0510625  
H60      H      0.149420000000     0.246270000000     0.631830000000     0.0510682  
H61      H      0.176650000000     0.448080000000     0.644190000000     0.0510579  
H62      H      0.272050000000     0.996270000000     0.644150000000     0.0510742  
H63      H      0.244860000000     0.050280000000     0.644080000000     0.0510691  
H64      H      0.149460000000     0.502090000000     0.644350000000     0.0510579  
H65      H      0.022020000000     0.745820000000     0.144370000000     0.0510676  
H66      H      0.426620000000     0.697630000000     0.144080000000     0.0510661  
H67      H      0.399430000000     0.751630000000     0.144140000000     0.0510724  
H68      H      0.494830000000     0.799820000000     0.144200000000     0.0510577  
H69      H      0.426650000000     0.549820000000     0.131780000000     0.0510586  
H70      H      0.022060000000     0.001630000000     0.131820000000     0.051073   
H71      H      0.494860000000     0.947620000000     0.131880000000     0.0510711  
H72      H      0.399460000000     0.495820000000     0.131610000000     0.0510459  
H73      H      0.048470000000     0.645180000000     0.969680000000     0.0508773  
H74      H      0.119840000000     0.572770000000     0.001250000000     0.0502681  
H75      H      0.107090000000     0.586220000000     0.056590000000     0.0509114  
H76      H      0.034910000000     0.657830000000     0.025030000000     0.0502891  
H77      H      0.301860000000     0.924780000000     0.000940000000     0.050265   
H78      H      0.373480000000     0.852600000000     0.969370000000     0.0508895  
H79      H      0.386940000000     0.839850000000     0.024720000000     0.0502643  
H80      H      0.314510000000     0.911220000000     0.056280000000     0.0508906  
H81      H      0.213880000000     0.937670000000     0.881600000000     0.0510626  
H82      H      0.262070000000     0.533070000000     0.881890000000     0.0510777  
H83      H      0.208070000000     0.560270000000     0.881820000000     0.0510534  
H84      H      0.159870000000     0.964860000000     0.881770000000     0.0510549  
H85      H      0.409870000000     0.033040000000     0.894190000000     0.0510584  
H86      H      0.458070000000     0.937640000000     0.894140000000     0.0510439  
H87      H      0.512070000000     0.464830000000     0.894070000000     0.0510747  
H88      H      0.463880000000     0.560230000000     0.894360000000     0.0510639  
H89      H      0.119620000000     0.674770000000     0.275030000000     0.0502917  
H90      H      0.048000000000     0.602600000000     0.306590000000     0.0508481  
H91      H      0.034550000000     0.589860000000     0.251240000000     0.0503036  
H92      H      0.106980000000     0.661220000000     0.219690000000     0.0508862  
H93      H      0.373010000000     0.895190000000     0.306280000000     0.0508865  
H94      H      0.301640000000     0.822760000000     0.274710000000     0.0502552  
H95      H      0.314400000000     0.836220000000     0.219370000000     0.0508994  
H96      H      0.386570000000     0.907830000000     0.250940000000     0.0502716  
H97      H      0.213420000000     0.810260000000     0.394140000000     0.051083   
H98      H      0.261620000000     0.714870000000     0.394190000000     0.0510721  
H99      H      0.207610000000     0.687670000000     0.394360000000     0.051057   
H100     H      0.159410000000     0.783070000000     0.394080000000     0.051042   
H101     H      0.409410000000     0.714830000000     0.381880000000     0.0510396  
H102     H      0.457610000000     0.810230000000     0.381610000000     0.0510612  
H103     H      0.011620000000     0.783040000000     0.381780000000     0.0510705  
H104     H      0.463420000000     0.687640000000     0.381820000000     0.0510804  
H105     H      0.136570000000     0.590070000000     0.525030000000     0.0502595  
H106     H      0.064390000000     0.661680000000     0.556590000000     0.0508912  
H107     H      0.051640000000     0.675140000000     0.501250000000     0.0502695  
H108     H      0.123010000000     0.602720000000     0.469680000000     0.0509106  
H109     H      0.136940000000     0.658040000000     0.751250000000     0.0502816  
H110     H      0.064510000000     0.586690000000     0.719680000000     0.0509107  
H111     H      0.051860000000     0.573130000000     0.775030000000     0.0502679  
H112     H      0.123480000000     0.645300000000     0.806590000000     0.0508769  
H113     H      0.356970000000     0.836690000000     0.556280000000     0.0508829  
H114     H      0.284540000000     0.908040000000     0.524720000000     0.0502655  
H115     H      0.298000000000     0.895290000000     0.469370000000     0.0508949  
H116     H      0.369620000000     0.823130000000     0.500940000000     0.0502707  
H117     H      0.357090000000     0.911680000000     0.719370000000     0.0508933  
H118     H      0.284910000000     0.840070000000     0.750940000000     0.0502831  
H119     H      0.298470000000     0.852720000000     0.806280000000     0.0508754  
H120     H      0.369840000000     0.925130000000     0.774720000000     0.0502646  
H121     H      0.176620000000     0.800280000000     0.631890000000     0.0510751  
H122     H      0.272020000000     0.752080000000     0.631600000000     0.0510341  
H123     H      0.244830000000     0.698080000000     0.631770000000     0.0510622  
H124     H      0.149420000000     0.746270000000     0.631830000000     0.0510677  
H125     H      0.176650000000     0.948080000000     0.644190000000     0.0510582  
H126     H      0.272060000000     0.496270000000     0.644150000000     0.051069   
H127     H      0.244860000000     0.550280000000     0.644080000000     0.0510716  
H128     H      0.149460000000     0.002090000000     0.644360000000     0.0510567  
H129     H      0.522020000000     0.245820000000     0.144370000000     0.0510349  
H130     H      0.926620000000     0.197630000000     0.144080000000     0.0510445  
H131     H      0.899430000000     0.251630000000     0.144140000000     0.0510556  
H132     H      0.994830000000     0.299820000000     0.144200000000     0.0510483  
H133     H      0.926650000000     0.049820000000     0.131780000000     0.0510583  
H134     H      0.522060000000     0.501630000000     0.131820000000     0.051069   
H135     H      0.994860000000     0.447620000000     0.131880000000     0.0510698  
H136     H      0.899460000000     0.995820000000     0.131610000000     0.0510459  
H137     H      0.548470000000     0.145180000000     0.969680000000     0.0508923  
H138     H      0.619840000000     0.072760000000     0.001250000000     0.0502704  
H139     H      0.607090000000     0.086220000000     0.056590000000     0.0509005  
H140     H      0.534910000000     0.157830000000     0.025030000000     0.0502876  
H141     H      0.801860000000     0.424780000000     0.000940000000     0.050265   
H142     H      0.873490000000     0.352600000000     0.969370000000     0.0508814  
H143     H      0.886940000000     0.339860000000     0.024720000000     0.0502693  
H144     H      0.814510000000     0.411220000000     0.056280000000     0.0508868  
H145     H      0.713880000000     0.437670000000     0.881600000000     0.0510613  
H146     H      0.762080000000     0.033070000000     0.881890000000     0.0510502  
H147     H      0.708070000000     0.060260000000     0.881820000000     0.0510515  
H148     H      0.659870000000     0.464860000000     0.881770000000     0.0510565  
H149     H      0.909870000000     0.533040000000     0.894190000000     0.0510574  
H150     H      0.958070000000     0.437640000000     0.894140000000     0.051082   
H151     H      0.012080000000     0.964830000000     0.894080000000     0.0510805  
H152     H      0.963880000000     0.060230000000     0.894360000000     0.0510637  
H153     H      0.619620000000     0.174780000000     0.275030000000     0.0502946  
H154     H      0.548000000000     0.102610000000     0.306590000000     0.0508933  
H155     H      0.534550000000     0.089860000000     0.251250000000     0.0502763  
H156     H      0.606980000000     0.161220000000     0.219690000000     0.0508669  
H157     H      0.873010000000     0.395190000000     0.306280000000     0.0508875  
H158     H      0.801650000000     0.322760000000     0.274710000000     0.0502637  
H159     H      0.814400000000     0.336220000000     0.219370000000     0.0508999  
H160     H      0.886570000000     0.407830000000     0.250940000000     0.0502713  
H161     H      0.713420000000     0.310270000000     0.394140000000     0.0510552  
H162     H      0.761620000000     0.214870000000     0.394190000000     0.0510866  
H163     H      0.707610000000     0.187670000000     0.394360000000     0.0510525  
H164     H      0.659410000000     0.283070000000     0.394080000000     0.0510816  
H165     H      0.909410000000     0.214830000000     0.381880000000     0.0510388  
H166     H      0.957610000000     0.310230000000     0.381600000000     0.0510593  
H167     H      0.511620000000     0.283040000000     0.381780000000     0.0510665  
H168     H      0.963420000000     0.187640000000     0.381820000000     0.0510797  
H169     H      0.636570000000     0.090070000000     0.525030000000     0.0502671  
H170     H      0.564390000000     0.161680000000     0.556590000000     0.0508747  
H171     H      0.551650000000     0.175140000000     0.501250000000     0.0502746  
H172     H      0.623010000000     0.102720000000     0.469680000000     0.0509024  
H173     H      0.636940000000     0.158040000000     0.751250000000     0.050296   
H174     H      0.564510000000     0.086690000000     0.719680000000     0.0509019  
H175     H      0.551860000000     0.073130000000     0.775030000000     0.0502775  
H176     H      0.623490000000     0.145290000000     0.806590000000     0.050869   
H177     H      0.856980000000     0.336690000000     0.556280000000     0.050887   
H178     H      0.784550000000     0.408040000000     0.524720000000     0.0502582  
H179     H      0.798000000000     0.395290000000     0.469370000000     0.050898   
H180     H      0.869620000000     0.323130000000     0.500930000000     0.050277   
H181     H      0.857090000000     0.411680000000     0.719370000000     0.0509167  
H182     H      0.784910000000     0.340070000000     0.750940000000     0.050284   
H183     H      0.798470000000     0.352720000000     0.806280000000     0.0508744  
H184     H      0.869840000000     0.425130000000     0.774720000000     0.0502552  
H185     H      0.676620000000     0.300280000000     0.631890000000     0.0510764  
H186     H      0.772020000000     0.252080000000     0.631600000000     0.051053   
H187     H      0.744830000000     0.198080000000     0.631770000000     0.0510507  
H188     H      0.649420000000     0.246270000000     0.631830000000     0.051067   
H189     H      0.676650000000     0.448080000000     0.644190000000     0.0510582  
H190     H      0.772060000000     0.996270000000     0.644150000000     0.051069   
H191     H      0.744860000000     0.050280000000     0.644080000000     0.0510715  
H192     H      0.649460000000     0.502090000000     0.644350000000     0.0510573  
H193     H      0.522020000000     0.745820000000     0.144370000000     0.0510465  
H194     H      0.926620000000     0.697630000000     0.144080000000     0.051036   
H195     H      0.899430000000     0.751630000000     0.144140000000     0.0510831  
H196     H      0.994830000000     0.799820000000     0.144200000000     0.0510463  
H197     H      0.926650000000     0.549820000000     0.131780000000     0.0510587  
H198     H      0.522060000000     0.001630000000     0.131820000000     0.0510694  
H199     H      0.994860000000     0.947620000000     0.131880000000     0.0510697  
H200     H      0.899460000000     0.495820000000     0.131610000000     0.0510461  
H201     H      0.548470000000     0.645180000000     0.969680000000     0.0508735  
H202     H      0.619840000000     0.572770000000     0.001250000000     0.0502822  
H203     H      0.607090000000     0.586220000000     0.056590000000     0.0508778  
H204     H      0.534910000000     0.657830000000     0.025030000000     0.0502957  
H205     H      0.801870000000     0.924780000000     0.000940000000     0.0502712  
H206     H      0.873480000000     0.852600000000     0.969370000000     0.0508899  
H207     H      0.886940000000     0.839850000000     0.024720000000     0.0502615  
H208     H      0.814510000000     0.911220000000     0.056280000000     0.050884   
H209     H      0.713880000000     0.937670000000     0.881600000000     0.0510615  
H210     H      0.762080000000     0.533070000000     0.881890000000     0.0510402  
H211     H      0.708070000000     0.560260000000     0.881820000000     0.0510981  
H212     H      0.659870000000     0.964860000000     0.881770000000     0.0510604  
H213     H      0.909870000000     0.033040000000     0.894190000000     0.051053   
H214     H      0.958070000000     0.937640000000     0.894140000000     0.0510592  
H215     H      0.012080000000     0.464830000000     0.894080000000     0.051075   
H216     H      0.963880000000     0.560230000000     0.894360000000     0.0510637  
H217     H      0.619620000000     0.674780000000     0.275030000000     0.0502903  
H218     H      0.548000000000     0.602600000000     0.306590000000     0.0508436  
H219     H      0.534550000000     0.589860000000     0.251250000000     0.0502932  
H220     H      0.606980000000     0.661220000000     0.219690000000     0.0508876  
H221     H      0.873010000000     0.895190000000     0.306280000000     0.050886   
H222     H      0.801650000000     0.822760000000     0.274710000000     0.0502623  
H223     H      0.814390000000     0.836220000000     0.219370000000     0.0508924  
H224     H      0.886570000000     0.907830000000     0.250940000000     0.0502714  
H225     H      0.713420000000     0.810270000000     0.394140000000     0.0510545  
H226     H      0.761620000000     0.714870000000     0.394190000000     0.0510869  
H227     H      0.707610000000     0.687670000000     0.394360000000     0.0510528  
H228     H      0.659410000000     0.783070000000     0.394080000000     0.0510813  
H229     H      0.909410000000     0.714830000000     0.381880000000     0.0510409  
H230     H      0.957610000000     0.810230000000     0.381610000000     0.0510328  
H231     H      0.511620000000     0.783040000000     0.381780000000     0.0510597  
H232     H      0.963420000000     0.687640000000     0.381820000000     0.0510823  
H233     H      0.636570000000     0.590070000000     0.525030000000     0.0502709  
H234     H      0.564390000000     0.661680000000     0.556590000000     0.0508768  
H235     H      0.551650000000     0.675140000000     0.501250000000     0.050274   
H236     H      0.623020000000     0.602720000000     0.469680000000     0.0508933  
H237     H      0.636940000000     0.658040000000     0.751250000000     0.0502818  
H238     H      0.564510000000     0.586690000000     0.719680000000     0.0509062  
H239     H      0.551860000000     0.573130000000     0.775030000000     0.0502639  
H240     H      0.623490000000     0.645300000000     0.806590000000     0.0508693  
H241     H      0.856980000000     0.836690000000     0.556280000000     0.0508745  
H242     H      0.784540000000     0.908040000000     0.524720000000     0.0502781  
H243     H      0.798000000000     0.895290000000     0.469370000000     0.0508866  
H244     H      0.869620000000     0.823130000000     0.500940000000     0.0502704  
H245     H      0.857090000000     0.911680000000     0.719370000000     0.0509076  
H246     H      0.784910000000     0.840070000000     0.750940000000     0.0502819  
H247     H      0.798470000000     0.852720000000     0.806280000000     0.0508755  
H248     H      0.869840000000     0.925130000000     0.774720000000     0.0502557  
H249     H      0.676620000000     0.800280000000     0.631890000000     0.0510723  
H250     H      0.772020000000     0.752080000000     0.631600000000     0.0510344  
H251     H      0.744830000000     0.698080000000     0.631770000000     0.0510629  
H252     H      0.649430000000     0.746270000000     0.631830000000     0.0510725  
H253     H      0.676650000000     0.948080000000     0.644190000000     0.0510576  
H254     H      0.772050000000     0.496270000000     0.644150000000     0.0510741  
H255     H      0.744860000000     0.550280000000     0.644080000000     0.0510691  
H256     H      0.649460000000     0.002090000000     0.644360000000     0.0510568  
N1       N      0.476370000000     0.217580000000     0.143950000000    -0.160343   
N2       N      0.445080000000     0.279870000000     0.143890000000    -0.160319   
N3       N      0.476400000000     0.029870000000     0.132070000000    -0.160303   
N4       N      0.445110000000     0.467570000000     0.132010000000    -0.160397   
N5       N      0.084130000000     0.107050000000     0.981350000000    -0.161344   
N6       N      0.069060000000     0.122000000000     0.044920000000    -0.161313   
N7       N      0.337700000000     0.390630000000     0.981050000000    -0.161293   
N8       N      0.352650000000     0.375560000000     0.044610000000    -0.161323   
N9       N      0.242120000000     0.483320000000     0.882010000000    -0.160317   
N10      N      0.179820000000     0.014610000000     0.882070000000    -0.160342   
N11      N      0.429820000000     0.483290000000     0.893890000000    -0.160351   
N12      N      0.492120000000     0.014580000000     0.893950000000    -0.160321   
N13      N      0.083780000000     0.140620000000     0.294920000000    -0.161307   
N14      N      0.068840000000     0.125560000000     0.231360000000    -0.161262   
N15      N      0.337350000000     0.357050000000     0.294610000000    -0.161344   
N16      N      0.352420000000     0.372000000000     0.231050000000    -0.161327   
N17      N      0.241660000000     0.264610000000     0.393890000000    -0.160291   
N18      N      0.179370000000     0.233320000000     0.393950000000    -0.160363   
N19      N      0.429370000000     0.264580000000     0.382010000000    -0.160384   
N20      N      0.491660000000     0.233290000000     0.382070000000    -0.160291   
N21      N      0.102420000000     0.125910000000     0.544920000000    -0.161317   
N22      N      0.087350000000     0.140850000000     0.481360000000    -0.161276   
N23      N      0.102650000000     0.122340000000     0.731360000000    -0.161256   
N24      N      0.087700000000     0.107280000000     0.794920000000    -0.161295   
N25      N      0.318840000000     0.372340000000     0.544610000000    -0.161337   
N26      N      0.333780000000     0.357280000000     0.481050000000    -0.16125    
N27      N      0.319060000000     0.375900000000     0.731050000000    -0.161299   
N28      N      0.334130000000     0.390850000000     0.794610000000    -0.161362   
N29      N      0.226370000000     0.280320000000     0.632010000000    -0.16035    
N30      N      0.195080000000     0.218030000000     0.632070000000    -0.1603     
N31      N      0.226400000000     0.468030000000     0.643890000000    -0.160305   
N32      N      0.195110000000     0.030330000000     0.643950000000    -0.160398   
N33      N      0.476370000000     0.717570000000     0.143950000000    -0.160395   
N34      N      0.445080000000     0.779870000000     0.143890000000    -0.160297   
N35      N      0.476400000000     0.529870000000     0.132070000000    -0.160303   
N36      N      0.445110000000     0.967570000000     0.132010000000    -0.160396   
N37      N      0.084130000000     0.607050000000     0.981350000000    -0.161344   
N38      N      0.069060000000     0.622000000000     0.044920000000    -0.161313   
N39      N      0.337700000000     0.890630000000     0.981050000000    -0.161314   
N40      N      0.352650000000     0.875560000000     0.044610000000    -0.161326   
N41      N      0.242120000000     0.983320000000     0.882010000000    -0.160358   
N42      N      0.179820000000     0.514610000000     0.882070000000    -0.160358   
N43      N      0.429830000000     0.983290000000     0.893890000000    -0.160325   
N44      N      0.492120000000     0.514580000000     0.893950000000    -0.16032    
N45      N      0.083780000000     0.640620000000     0.294920000000    -0.161314   
N46      N      0.068840000000     0.625560000000     0.231360000000    -0.161237   
N47      N      0.337350000000     0.857050000000     0.294610000000    -0.161327   
N48      N      0.352420000000     0.872000000000     0.231050000000    -0.161328   
N49      N      0.241660000000     0.764610000000     0.393890000000    -0.160291   
N50      N      0.179370000000     0.733320000000     0.393950000000    -0.160363   
N51      N      0.429370000000     0.764580000000     0.382010000000    -0.160335   
N52      N      0.491660000000     0.733290000000     0.382070000000    -0.160296   
N53      N      0.102420000000     0.625900000000     0.544920000000    -0.16134    
N54      N      0.087350000000     0.640850000000     0.481360000000    -0.16127    
N55      N      0.102650000000     0.622340000000     0.731360000000    -0.161251   
N56      N      0.087700000000     0.607280000000     0.794920000000    -0.161313   
N57      N      0.318840000000     0.872340000000     0.544610000000    -0.161319   
N58      N      0.333780000000     0.857280000000     0.481050000000    -0.161253   
N59      N      0.319060000000     0.875900000000     0.731050000000    -0.161281   
N60      N      0.334130000000     0.890850000000     0.794610000000    -0.161362   
N61      N      0.226370000000     0.780320000000     0.632010000000    -0.16035    
N62      N      0.195080000000     0.718030000000     0.632070000000    -0.1603     
N63      N      0.226400000000     0.968030000000     0.643890000000    -0.160298   
N64      N      0.195110000000     0.530330000000     0.643950000000    -0.160396   
N65      N      0.976370000000     0.217580000000     0.143960000000    -0.160349   
N66      N      0.945080000000     0.279870000000     0.143890000000    -0.160319   
N67      N      0.976400000000     0.029870000000     0.132070000000    -0.160302   
N68      N      0.945110000000     0.467570000000     0.132010000000    -0.160397   
N69      N      0.584130000000     0.107050000000     0.981350000000    -0.161331   
N70      N      0.569060000000     0.121990000000     0.044920000000    -0.161314   
N71      N      0.837700000000     0.390630000000     0.981050000000    -0.161318   
N72      N      0.852650000000     0.375560000000     0.044610000000    -0.161337   
N73      N      0.742120000000     0.483320000000     0.882010000000    -0.160362   
N74      N      0.679830000000     0.014610000000     0.882070000000    -0.160322   
N75      N      0.929820000000     0.483290000000     0.893890000000    -0.160352   
N76      N      0.992120000000     0.014580000000     0.893950000000    -0.160326   
N77      N      0.583780000000     0.140630000000     0.294920000000    -0.161273   
N78      N      0.568840000000     0.125560000000     0.231360000000    -0.161269   
N79      N      0.837350000000     0.357050000000     0.294610000000    -0.161306   
N80      N      0.852420000000     0.372000000000     0.231050000000    -0.1613     
N81      N      0.741660000000     0.264620000000     0.393890000000    -0.160329   
N82      N      0.679370000000     0.233320000000     0.393950000000    -0.160328   
N83      N      0.929370000000     0.264580000000     0.382010000000    -0.160335   
N84      N      0.991660000000     0.233290000000     0.382070000000    -0.160297   
N85      N      0.602420000000     0.125910000000     0.544920000000    -0.161327   
N86      N      0.587350000000     0.140850000000     0.481360000000    -0.161285   
N87      N      0.602650000000     0.122340000000     0.731360000000    -0.161238   
N88      N      0.587700000000     0.107280000000     0.794920000000    -0.161312   
N89      N      0.818830000000     0.372340000000     0.544610000000    -0.161338   
N90      N      0.833780000000     0.357280000000     0.481050000000    -0.161253   
N91      N      0.819060000000     0.375900000000     0.731050000000    -0.161256   
N92      N      0.834130000000     0.390850000000     0.794610000000    -0.161375   
N93      N      0.726370000000     0.280320000000     0.632010000000    -0.160326   
N94      N      0.695080000000     0.218030000000     0.632070000000    -0.160308   
N95      N      0.726400000000     0.468030000000     0.643890000000    -0.160298   
N96      N      0.695110000000     0.030330000000     0.643950000000    -0.160396   
N97      N      0.976370000000     0.717570000000     0.143960000000    -0.160402   
N98      N      0.945080000000     0.779870000000     0.143890000000    -0.160297   
N99      N      0.976400000000     0.529870000000     0.132070000000    -0.160302   
N100     N      0.945110000000     0.967570000000     0.132010000000    -0.160397   
N101     N      0.584130000000     0.607050000000     0.981350000000    -0.161343   
N102     N      0.569070000000     0.622000000000     0.044920000000    -0.161318   
N103     N      0.837700000000     0.890630000000     0.981050000000    -0.161308   
N104     N      0.852650000000     0.875560000000     0.044610000000    -0.161345   
N105     N      0.742120000000     0.983320000000     0.882010000000    -0.160355   
N106     N      0.679820000000     0.514610000000     0.882070000000    -0.160318   
N107     N      0.929820000000     0.983290000000     0.893890000000    -0.16035    
N108     N      0.992120000000     0.514580000000     0.893950000000    -0.160329   
N109     N      0.583780000000     0.640620000000     0.294920000000    -0.161321   
N110     N      0.568840000000     0.625560000000     0.231360000000    -0.161235   
N111     N      0.837350000000     0.857050000000     0.294610000000    -0.161322   
N112     N      0.852420000000     0.872000000000     0.231050000000    -0.161303   
N113     N      0.741660000000     0.764620000000     0.393890000000    -0.160329   
N114     N      0.679370000000     0.733320000000     0.393950000000    -0.160328   
N115     N      0.929370000000     0.764580000000     0.382010000000    -0.160384   
N116     N      0.991660000000     0.733290000000     0.382070000000    -0.160291   
N117     N      0.602420000000     0.625910000000     0.544920000000    -0.161336   
N118     N      0.587350000000     0.640850000000     0.481360000000    -0.161317   
N119     N      0.602650000000     0.622340000000     0.731360000000    -0.161266   
N120     N      0.587700000000     0.607280000000     0.794920000000    -0.161333   
N121     N      0.818840000000     0.872340000000     0.544610000000    -0.161317   
N122     N      0.833780000000     0.857280000000     0.481050000000    -0.161257   
N123     N      0.819060000000     0.875900000000     0.731050000000    -0.161304   
N124     N      0.834130000000     0.890850000000     0.794610000000    -0.161367   
N125     N      0.726370000000     0.780320000000     0.632010000000    -0.160352   
N126     N      0.695080000000     0.718030000000     0.632070000000    -0.160293   
N127     N      0.726400000000     0.968030000000     0.643890000000    -0.160305   
N128     N      0.695110000000     0.530330000000     0.643950000000    -0.160398   
O1       O      0.225620000000     0.338140000000     0.634700000000    -0.236709   
O2       O      0.321100000000     0.387570000000     0.676670000000    -0.240388   
O3       O      0.225640000000     0.410210000000     0.641200000000    -0.23668    
O4       O      0.279930000000     0.390200000000     0.581390000000    -0.247414   
O5       O      0.321040000000     0.360800000000     0.599010000000    -0.240384   
O6       O      0.273500000000     0.434960000000     0.642280000000    -0.243249   
O7       O      0.273470000000     0.313390000000     0.633460000000    -0.243289   
O8       O      0.280100000000     0.358040000000     0.694320000000    -0.24738    
O9       O      0.195840000000     0.160210000000     0.634760000000    -0.236684   
O10      O      0.100440000000     0.110800000000     0.676960000000    -0.240444   
O11      O      0.195860000000     0.088140000000     0.641260000000    -0.236728   
O12      O      0.141370000000     0.108040000000     0.581640000000    -0.247508   
O13      O      0.100370000000     0.137570000000     0.599300000000    -0.240391   
O14      O      0.148010000000     0.063390000000     0.642490000000    -0.243314   
O15      O      0.147980000000     0.184960000000     0.633690000000    -0.243249   
O16      O      0.141550000000     0.140210000000     0.694580000000    -0.247472   
O17      O      0.371550000000     0.263830000000     0.384700000000    -0.236714   
O18      O      0.351650000000     0.318320000000     0.444320000000    -0.247404   
O19      O      0.299480000000     0.263850000000     0.391200000000    -0.23669    
O20      O      0.319490000000     0.318150000000     0.331390000000    -0.247517   
O21      O      0.348890000000     0.359250000000     0.349010000000    -0.240425   
O22      O      0.274730000000     0.311710000000     0.392270000000    -0.243238   
O23      O      0.396300000000     0.311680000000     0.383470000000    -0.24329    
O24      O      0.322110000000     0.359320000000     0.426670000000    -0.240409   
O25      O      0.121550000000     0.234070000000     0.391260000000    -0.236704   
O26      O      0.101650000000     0.179580000000     0.331650000000    -0.247394   
O27      O      0.049480000000     0.234050000000     0.384770000000    -0.236685   
O28      O      0.069490000000     0.179750000000     0.444580000000    -0.247524   
O29      O      0.098900000000     0.138650000000     0.426960000000    -0.240448   
O30      O      0.024730000000     0.186190000000     0.383690000000    -0.243246   
O31      O      0.146300000000     0.186220000000     0.392500000000    -0.243275   
O32      O      0.072120000000     0.138580000000     0.349300000000    -0.240385   
O33      O      0.299940000000     0.484070000000     0.884700000000    -0.2367     
O34      O      0.349370000000     0.388580000000     0.926670000000    -0.240366   
O35      O      0.372000000000     0.484050000000     0.891200000000    -0.236603   
O36      O      0.322590000000     0.388650000000     0.849000000000    -0.240438   
O37      O      0.352000000000     0.429750000000     0.831390000000    -0.247515   
O38      O      0.396760000000     0.436190000000     0.892270000000    -0.243236   
O39      O      0.275190000000     0.436220000000     0.883470000000    -0.243268   
O40      O      0.319830000000     0.429580000000     0.944320000000    -0.247426   
O41      O      0.122000000000     0.013850000000     0.884760000000    -0.236601   
O42      O      0.072590000000     0.109250000000     0.926960000000    -0.240451   
O43      O      0.025190000000     0.061680000000     0.892490000000    -0.243273   
O44      O      0.069830000000     0.068320000000     0.831640000000    -0.247341   
O45      O      0.099370000000     0.109320000000     0.849300000000    -0.240387   
O46      O      0.049940000000     0.013830000000     0.891260000000    -0.236706   
O47      O      0.146760000000     0.061710000000     0.883690000000    -0.243228   
O48      O      0.102000000000     0.068150000000     0.944570000000    -0.247532   
O49      O      0.475620000000     0.159760000000     0.141260000000    -0.236705   
O50      O      0.071110000000     0.110330000000     0.099290000000    -0.240485   
O51      O      0.475640000000     0.087690000000     0.134760000000    -0.236687   
O52      O      0.029930000000     0.107700000000     0.194570000000    -0.247416   
O53      O      0.071040000000     0.137100000000     0.176960000000    -0.240449   
O54      O      0.023500000000     0.062940000000     0.133690000000    -0.243245   
O55      O      0.023470000000     0.184510000000     0.142500000000    -0.243276   
O56      O      0.030110000000     0.139860000000     0.081640000000    -0.247546   
O57      O      0.445840000000     0.337690000000     0.141200000000    -0.236696   
O58      O      0.391550000000     0.357700000000     0.081390000000    -0.247509   
O59      O      0.445860000000     0.409760000000     0.134700000000    -0.236748   
O60      O      0.391370000000     0.389860000000     0.194320000000    -0.247491   
O61      O      0.350380000000     0.360330000000     0.176670000000    -0.240417   
O62      O      0.398010000000     0.434510000000     0.133470000000    -0.243308   
O63      O      0.397980000000     0.312940000000     0.142270000000    -0.243242   
O64      O      0.350440000000     0.387100000000     0.099010000000    -0.240358   
O65      O      0.225620000000     0.838140000000     0.634700000000    -0.236709   
O66      O      0.321110000000     0.887570000000     0.676670000000    -0.240324   
O67      O      0.225640000000     0.910210000000     0.641200000000    -0.236679   
O68      O      0.279930000000     0.890200000000     0.581390000000    -0.247502   
O69      O      0.321040000000     0.860800000000     0.599010000000    -0.240358   
O70      O      0.273500000000     0.934960000000     0.642280000000    -0.243248   
O71      O      0.273470000000     0.813390000000     0.633460000000    -0.243292   
O72      O      0.280100000000     0.858040000000     0.694320000000    -0.247366   
O73      O      0.195840000000     0.660210000000     0.634760000000    -0.236685   
O74      O      0.100440000000     0.610800000000     0.676960000000    -0.240443   
O75      O      0.195860000000     0.588140000000     0.641260000000    -0.236728   
O76      O      0.141370000000     0.608040000000     0.581640000000    -0.247511   
O77      O      0.100370000000     0.637570000000     0.599300000000    -0.240395   
O78      O      0.148010000000     0.563390000000     0.642490000000    -0.243313   
O79      O      0.147980000000     0.684960000000     0.633690000000    -0.24325    
O80      O      0.141550000000     0.640210000000     0.694580000000    -0.247471   
O81      O      0.371540000000     0.763830000000     0.384700000000    -0.236608   
O82      O      0.351650000000     0.818320000000     0.444320000000    -0.247405   
O83      O      0.299480000000     0.763850000000     0.391200000000    -0.236689   
O84      O      0.319490000000     0.818150000000     0.331390000000    -0.247499   
O85      O      0.348900000000     0.859250000000     0.349010000000    -0.240366   
O86      O      0.274730000000     0.811710000000     0.392270000000    -0.24324    
O87      O      0.396300000000     0.811680000000     0.383470000000    -0.243243   
O88      O      0.322110000000     0.859320000000     0.426670000000    -0.240413   
O89      O      0.121550000000     0.734070000000     0.391260000000    -0.236704   
O90      O      0.101650000000     0.679580000000     0.331650000000    -0.247394   
O91      O      0.049480000000     0.734050000000     0.384770000000    -0.236685   
O92      O      0.069490000000     0.679750000000     0.444580000000    -0.247524   
O93      O      0.098900000000     0.638650000000     0.426960000000    -0.240448   
O94      O      0.024730000000     0.686190000000     0.383690000000    -0.243245   
O95      O      0.146300000000     0.686220000000     0.392500000000    -0.243275   
O96      O      0.072120000000     0.638580000000     0.349300000000    -0.240385   
O97      O      0.299940000000     0.984070000000     0.884700000000    -0.236709   
O98      O      0.349370000000     0.888580000000     0.926670000000    -0.240385   
O99      O      0.372010000000     0.984050000000     0.891200000000    -0.236685   
O100     O      0.322590000000     0.888650000000     0.849000000000    -0.240439   
O101     O      0.352000000000     0.929750000000     0.831390000000    -0.247515   
O102     O      0.396760000000     0.936190000000     0.892270000000    -0.24325    
O103     O      0.275190000000     0.936220000000     0.883470000000    -0.243273   
O104     O      0.319840000000     0.929580000000     0.944320000000    -0.247493   
O105     O      0.122000000000     0.513850000000     0.884760000000    -0.236601   
O106     O      0.072590000000     0.609250000000     0.926960000000    -0.240451   
O107     O      0.025190000000     0.561680000000     0.892490000000    -0.243273   
O108     O      0.069830000000     0.568320000000     0.831640000000    -0.247343   
O109     O      0.099370000000     0.609320000000     0.849300000000    -0.240388   
O110     O      0.049940000000     0.513830000000     0.891260000000    -0.236706   
O111     O      0.146760000000     0.561710000000     0.883690000000    -0.243232   
O112     O      0.102000000000     0.568150000000     0.944570000000    -0.247532   
O113     O      0.475620000000     0.659760000000     0.141260000000    -0.236726   
O114     O      0.071110000000     0.610330000000     0.099290000000    -0.240485   
O115     O      0.475640000000     0.587690000000     0.134760000000    -0.236687   
O116     O      0.029930000000     0.607700000000     0.194570000000    -0.247415   
O117     O      0.071040000000     0.637100000000     0.176960000000    -0.240446   
O118     O      0.023500000000     0.562940000000     0.133690000000    -0.243245   
O119     O      0.023470000000     0.684510000000     0.142500000000    -0.243299   
O120     O      0.030110000000     0.639860000000     0.081640000000    -0.247546   
O121     O      0.445840000000     0.837690000000     0.141200000000    -0.236675   
O122     O      0.391550000000     0.857700000000     0.081390000000    -0.247509   
O123     O      0.445860000000     0.909760000000     0.134700000000    -0.236728   
O124     O      0.391370000000     0.889860000000     0.194320000000    -0.247491   
O125     O      0.350380000000     0.860330000000     0.176670000000    -0.240436   
O126     O      0.398010000000     0.934510000000     0.133470000000    -0.243309   
O127     O      0.397980000000     0.812940000000     0.142270000000    -0.24324    
O128     O      0.350440000000     0.887100000000     0.099010000000    -0.240377   
O129     O      0.725620000000     0.338140000000     0.634700000000    -0.236708   
O130     O      0.821110000000     0.387570000000     0.676670000000    -0.240321   
O131     O      0.725640000000     0.410210000000     0.641200000000    -0.236679   
O132     O      0.779930000000     0.390200000000     0.581390000000    -0.247506   
O133     O      0.821040000000     0.360800000000     0.599010000000    -0.240368   
O134     O      0.773500000000     0.434960000000     0.642280000000    -0.243248   
O135     O      0.773470000000     0.313390000000     0.633460000000    -0.243288   
O136     O      0.780100000000     0.358040000000     0.694320000000    -0.247365   
O137     O      0.695840000000     0.160210000000     0.634760000000    -0.236703   
O138     O      0.600440000000     0.110800000000     0.676960000000    -0.240427   
O139     O      0.695860000000     0.088140000000     0.641260000000    -0.236747   
O140     O      0.641380000000     0.108040000000     0.581640000000    -0.247413   
O141     O      0.600380000000     0.137570000000     0.599300000000    -0.2404     
O142     O      0.648010000000     0.063390000000     0.642490000000    -0.243317   
O143     O      0.647980000000     0.184960000000     0.633690000000    -0.243244   
O144     O      0.641550000000     0.140210000000     0.694580000000    -0.24747    
O145     O      0.871540000000     0.263830000000     0.384700000000    -0.23661    
O146     O      0.851650000000     0.318320000000     0.444320000000    -0.247407   
O147     O      0.799480000000     0.263850000000     0.391200000000    -0.236704   
O148     O      0.819480000000     0.318150000000     0.331390000000    -0.247434   
O149     O      0.848900000000     0.359250000000     0.349010000000    -0.240347   
O150     O      0.774730000000     0.311710000000     0.392270000000    -0.243249   
O151     O      0.896300000000     0.311680000000     0.383470000000    -0.243246   
O152     O      0.822110000000     0.359320000000     0.426670000000    -0.240412   
O153     O      0.621550000000     0.234070000000     0.391260000000    -0.236699   
O154     O      0.601650000000     0.179580000000     0.331650000000    -0.247471   
O155     O      0.549480000000     0.234050000000     0.384770000000    -0.236684   
O156     O      0.569490000000     0.179760000000     0.444580000000    -0.247369   
O157     O      0.598900000000     0.138650000000     0.426960000000    -0.240317   
O158     O      0.524730000000     0.186190000000     0.383690000000    -0.243247   
O159     O      0.646300000000     0.186220000000     0.392500000000    -0.243276   
O160     O      0.572110000000     0.138580000000     0.349300000000    -0.240311   
O161     O      0.799940000000     0.484070000000     0.884700000000    -0.23671    
O162     O      0.849370000000     0.388580000000     0.926670000000    -0.240382   
O163     O      0.872010000000     0.484050000000     0.891200000000    -0.236706   
O164     O      0.822590000000     0.388650000000     0.849000000000    -0.240479   
O165     O      0.852000000000     0.429750000000     0.831390000000    -0.247474   
O166     O      0.896760000000     0.436190000000     0.892270000000    -0.24327    
O167     O      0.775190000000     0.436220000000     0.883470000000    -0.243275   
O168     O      0.819840000000     0.429580000000     0.944320000000    -0.247493   
O169     O      0.622010000000     0.013850000000     0.884760000000    -0.236671   
O170     O      0.572590000000     0.109250000000     0.926960000000    -0.240493   
O171     O      0.525190000000     0.061680000000     0.892490000000    -0.243281   
O172     O      0.569840000000     0.068320000000     0.831640000000    -0.247447   
O173     O      0.599370000000     0.109320000000     0.849300000000    -0.240362   
O174     O      0.549940000000     0.013830000000     0.891260000000    -0.236705   
O175     O      0.646750000000     0.061710000000     0.883690000000    -0.24324    
O176     O      0.602000000000     0.068150000000     0.944570000000    -0.24749    
O177     O      0.975620000000     0.159760000000     0.141260000000    -0.2367     
O178     O      0.571110000000     0.110330000000     0.099290000000    -0.240481   
O179     O      0.975640000000     0.087690000000     0.134760000000    -0.236681   
O180     O      0.529930000000     0.107700000000     0.194570000000    -0.247419   
O181     O      0.571040000000     0.137100000000     0.176960000000    -0.240449   
O182     O      0.523500000000     0.062940000000     0.133690000000    -0.243253   
O183     O      0.523470000000     0.184510000000     0.142500000000    -0.243286   
O184     O      0.530110000000     0.139860000000     0.081640000000    -0.24755    
O185     O      0.945840000000     0.337690000000     0.141200000000    -0.236696   
O186     O      0.891550000000     0.357700000000     0.081390000000    -0.247522   
O187     O      0.945860000000     0.409760000000     0.134700000000    -0.236747   
O188     O      0.891380000000     0.389860000000     0.194320000000    -0.247381   
O189     O      0.850380000000     0.360330000000     0.176670000000    -0.24038    
O190     O      0.898010000000     0.434510000000     0.133470000000    -0.243306   
O191     O      0.897980000000     0.312940000000     0.142270000000    -0.243242   
O192     O      0.850450000000     0.387100000000     0.099010000000    -0.240424   
O193     O      0.725620000000     0.838140000000     0.634700000000    -0.23671    
O194     O      0.821100000000     0.887570000000     0.676670000000    -0.240423   
O195     O      0.725640000000     0.910210000000     0.641200000000    -0.236681   
O196     O      0.779930000000     0.890200000000     0.581390000000    -0.247412   
O197     O      0.821040000000     0.860800000000     0.599010000000    -0.240381   
O198     O      0.773500000000     0.934960000000     0.642280000000    -0.243248   
O199     O      0.773470000000     0.813390000000     0.633460000000    -0.243286   
O200     O      0.780110000000     0.858040000000     0.694320000000    -0.247489   
O201     O      0.695840000000     0.660210000000     0.634760000000    -0.236684   
O202     O      0.600450000000     0.610800000000     0.676960000000    -0.240508   
O203     O      0.695860000000     0.588140000000     0.641260000000    -0.236728   
O204     O      0.641370000000     0.608040000000     0.581640000000    -0.247511   
O205     O      0.600370000000     0.637570000000     0.599300000000    -0.240392   
O206     O      0.648010000000     0.563390000000     0.642490000000    -0.243309   
O207     O      0.647980000000     0.684960000000     0.633690000000    -0.243247   
O208     O      0.641550000000     0.640210000000     0.694580000000    -0.247485   
O209     O      0.871550000000     0.763830000000     0.384700000000    -0.236713   
O210     O      0.851650000000     0.818320000000     0.444320000000    -0.247404   
O211     O      0.799480000000     0.763850000000     0.391200000000    -0.236705   
O212     O      0.819490000000     0.818150000000     0.331390000000    -0.247499   
O213     O      0.848900000000     0.859250000000     0.349010000000    -0.240365   
O214     O      0.774730000000     0.811710000000     0.392270000000    -0.243252   
O215     O      0.896300000000     0.811680000000     0.383470000000    -0.243287   
O216     O      0.822110000000     0.859320000000     0.426670000000    -0.240413   
O217     O      0.621550000000     0.734070000000     0.391260000000    -0.2367     
O218     O      0.601650000000     0.679580000000     0.331650000000    -0.247499   
O219     O      0.549480000000     0.734050000000     0.384770000000    -0.236685   
O220     O      0.569490000000     0.679750000000     0.444580000000    -0.247481   
O221     O      0.598900000000     0.638650000000     0.426960000000    -0.240352   
O222     O      0.524730000000     0.686190000000     0.383690000000    -0.243243   
O223     O      0.646300000000     0.686220000000     0.392500000000    -0.243273   
O224     O      0.572120000000     0.638590000000     0.349300000000    -0.240424   
O225     O      0.799940000000     0.984070000000     0.884700000000    -0.236706   
O226     O      0.849370000000     0.888580000000     0.926670000000    -0.240386   
O227     O      0.872000000000     0.984050000000     0.891200000000    -0.236602   
O228     O      0.822590000000     0.888650000000     0.849000000000    -0.240439   
O229     O      0.852000000000     0.929750000000     0.831390000000    -0.247516   
O230     O      0.896760000000     0.936190000000     0.892270000000    -0.243234   
O231     O      0.775190000000     0.936220000000     0.883470000000    -0.243272   
O232     O      0.819840000000     0.929580000000     0.944320000000    -0.247492   
O233     O      0.622000000000     0.513850000000     0.884760000000    -0.236598   
O234     O      0.572590000000     0.609250000000     0.926960000000    -0.240493   
O235     O      0.525190000000     0.561680000000     0.892490000000    -0.243278   
O236     O      0.569840000000     0.568320000000     0.831640000000    -0.247409   
O237     O      0.599370000000     0.609320000000     0.849300000000    -0.240405   
O238     O      0.549940000000     0.513830000000     0.891260000000    -0.236704   
O239     O      0.646760000000     0.561710000000     0.883690000000    -0.243221   
O240     O      0.602000000000     0.568150000000     0.944570000000    -0.247491   
O241     O      0.975620000000     0.659760000000     0.141260000000    -0.23672    
O242     O      0.571110000000     0.610330000000     0.099290000000    -0.240476   
O243     O      0.975640000000     0.587690000000     0.134760000000    -0.23668    
O244     O      0.529930000000     0.607700000000     0.194570000000    -0.247417   
O245     O      0.571040000000     0.637100000000     0.176960000000    -0.240445   
O246     O      0.523500000000     0.562940000000     0.133690000000    -0.243254   
O247     O      0.523470000000     0.684510000000     0.142500000000    -0.243309   
O248     O      0.530110000000     0.639860000000     0.081640000000    -0.247545   
O249     O      0.945840000000     0.837690000000     0.141200000000    -0.236695   
O250     O      0.891550000000     0.857700000000     0.081390000000    -0.247523   
O251     O      0.945860000000     0.909760000000     0.134700000000    -0.236747   
O252     O      0.891380000000     0.889860000000     0.194320000000    -0.247381   
O253     O      0.850380000000     0.860330000000     0.176670000000    -0.24038    
O254     O      0.898010000000     0.934510000000     0.133470000000    -0.243307   
O255     O      0.897980000000     0.812940000000     0.142270000000    -0.243239   
O256     O      0.850450000000     0.887100000000     0.099010000000    -0.240424   


